
 OpenBabel12271915003D

 30 33  0  0  1  0  0  0  0  0999 V2000
    7.8200   48.0460   43.6470 C   0  0  1  0  0  0  0  0  0  0  0  0
    9.0620   47.4460   43.3350 N   0  0  0  0  0  0  0  0  0  0  0  0
    9.8340   48.1360   43.4240 H   0  0  0  0  0  0  0  0  0  0  0  0
    9.3020   46.5930   44.4930 O   0  0  0  0  0  0  0  0  0  0  0  0
    8.8280   47.2940   45.6340 C   0  0  2  0  0  0  0  0  0  0  0  0
   10.1020   47.7490   46.3680 C   0  0  1  0  0  0  0  0  0  0  0  0
   10.6660   46.5810   47.1230 C   0  0  2  0  0  0  0  0  0  0  0  0
    9.6660   46.2330   48.2390 C   0  0  1  0  0  0  0  0  0  0  0  0
    8.1900   46.1430   47.7400 C   0  0  2  0  0  0  0  0  0  0  0  0
    7.9890   46.4040   46.3600 O   0  0  0  0  0  0  0  0  0  0  0  0
    7.9900   48.4090   45.1080 C   0  0  0  0  0  0  0  0  0  0  0  0
    7.4470   49.1970   42.7450 C   0  0  0  0  0  0  0  0  0  0  0  0
    7.4720   50.5290   43.1140 C   0  0  0  0  0  0  0  0  0  0  0  0
    7.1450   51.5340   42.2020 C   0  0  0  0  0  0  0  0  0  0  0  0
    6.7570   51.1690   40.8880 C   0  0  0  0  0  0  0  0  0  0  0  0
    6.4250   52.1510   39.9390 C   0  0  0  0  0  0  0  0  0  0  0  0
    6.0440   51.7580   38.6530 C   0  0  0  0  0  0  0  0  0  0  0  0
    5.9980   50.4190   38.2910 C   0  0  0  0  0  0  0  0  0  0  0  0
    6.3310   49.4390   39.2260 C   0  0  0  0  0  0  0  0  0  0  0  0
    6.7020   49.8320   40.5270 C   0  0  0  0  0  0  0  0  0  0  0  0
    7.0260   48.8450   41.4450 C   0  0  0  0  0  0  0  0  0  0  0  0
   11.9410   46.8890   47.6790 O   0  0  0  0  0  0  0  0  0  0  0  0
   12.1330   47.8490   47.5090 H   0  0  0  0  0  0  0  0  0  0  0  0
   11.1320   48.3110   45.4960 O   0  0  0  0  0  0  0  0  0  0  0  0
   11.6220   47.5500   45.1250 H   0  0  0  0  0  0  0  0  0  0  0  0
   10.0930   45.0030   48.8510 O   0  0  0  0  0  0  0  0  0  0  0  0
    9.2850   44.5130   49.1970 H   0  0  0  0  0  0  0  0  0  0  0  0
    7.2570   47.0140   48.5870 C   0  0  0  0  0  0  0  0  0  0  0  0
    5.9470   47.0680   48.0480 O   0  0  0  0  0  0  0  0  0  0  0  0
    5.9370   47.7420   47.3420 H   0  0  0  0  0  0  0  0  0  0  0  0
  1 12  1  6  0  0  0
  1 11  1  0  0  0  0
  2  3  1  0  0  0  0
  2  1  1  0  0  0  0
  2  4  1  0  0  0  0
  4  5  1  0  0  0  0
  5 11  1  6  0  0  0
  5 10  1  0  0  0  0
  6  5  1  6  0  0  0
  6  7  1  0  0  0  0
  7 22  1  1  0  0  0
  7  8  1  0  0  0  0
  8 26  1  6  0  0  0
  9  8  1  0  0  0  0
  9 28  1  1  0  0  0
 10  9  1  0  0  0  0
 12 13  1  0  0  0  0
 14 13  2  0  0  0  0
 15 14  1  0  0  0  0
 16 15  2  0  0  0  0
 17 16  1  0  0  0  0
 18 17  2  0  0  0  0
 18 19  1  0  0  0  0
 19 20  2  0  0  0  0
 20 15  1  0  0  0  0
 20 21  1  0  0  0  0
 21 12  2  0  0  0  0
 23 22  1  0  0  0  0
 24  6  1  0  0  0  0
 25 24  1  0  0  0  0
 26 27  1  0  0  0  0
 29 28  1  0  0  0  0
 30 29  1  0  0  0  0
M  END
>  <minimizedAffinity>
-10.7149029

$$$$

 OpenBabel12271915003D

 30 33  0  0  1  0  0  0  0  0999 V2000
    7.4360   48.5320   45.7050 C   0  0  1  0  0  0  0  0  0  0  0  0
    6.7240   47.3180   45.5670 N   0  0  0  0  0  0  0  0  0  0  0  0
    7.1410   46.7340   44.8160 H   0  0  0  0  0  0  0  0  0  0  0  0
    7.1210   46.5810   46.7610 O   0  0  0  0  0  0  0  0  0  0  0  0
    8.4910   46.8760   46.9990 C   0  0  2  0  0  0  0  0  0  0  0  0
    9.2400   45.5930   46.6010 C   0  0  1  0  0  0  0  0  0  0  0  0
    9.1000   44.5900   47.7080 C   0  0  2  0  0  0  0  0  0  0  0  0
    9.8700   45.1390   48.9210 C   0  0  1  0  0  0  0  0  0  0  0  0
    9.5420   46.6330   49.2350 C   0  0  2  0  0  0  0  0  0  0  0  0
    8.6120   47.2560   48.3640 O   0  0  0  0  0  0  0  0  0  0  0  0
    8.8050   48.0610   46.1500 C   0  0  0  0  0  0  0  0  0  0  0  0
    7.4320   49.3930   44.4650 C   0  0  0  0  0  0  0  0  0  0  0  0
    7.2720   48.9200   43.1760 C   0  0  0  0  0  0  0  0  0  0  0  0
    7.2450   49.7930   42.0880 C   0  0  0  0  0  0  0  0  0  0  0  0
    7.4110   51.1820   42.3170 C   0  0  0  0  0  0  0  0  0  0  0  0
    7.3840   52.0940   41.2490 C   0  0  0  0  0  0  0  0  0  0  0  0
    7.5540   53.4580   41.5090 C   0  0  0  0  0  0  0  0  0  0  0  0
    7.7350   53.9290   42.8010 C   0  0  0  0  0  0  0  0  0  0  0  0
    7.7590   53.0300   43.8680 C   0  0  0  0  0  0  0  0  0  0  0  0
    7.6010   51.6550   43.6060 C   0  0  0  0  0  0  0  0  0  0  0  0
    7.6310   50.7740   44.6770 C   0  0  0  0  0  0  0  0  0  0  0  0
    9.6200   43.3190   47.3260 O   0  0  0  0  0  0  0  0  0  0  0  0
   10.0390   43.4090   46.4300 H   0  0  0  0  0  0  0  0  0  0  0  0
    8.7910   44.9990   45.3420 O   0  0  0  0  0  0  0  0  0  0  0  0
    8.0000   44.4640   45.5580 H   0  0  0  0  0  0  0  0  0  0  0  0
    9.5910   44.2890   50.0470 O   0  0  0  0  0  0  0  0  0  0  0  0
    9.6430   44.8350   50.8900 H   0  0  0  0  0  0  0  0  0  0  0  0
   10.8170   47.4760   49.3440 C   0  0  0  0  0  0  0  0  0  0  0  0
   11.6230   47.3680   48.1830 O   0  0  0  0  0  0  0  0  0  0  0  0
   12.1560   46.5520   48.2590 H   0  0  0  0  0  0  0  0  0  0  0  0
  1 12  1  6  0  0  0
  1 11  1  0  0  0  0
  2  1  1  0  0  0  0
  2  4  1  0  0  0  0
  3  2  1  0  0  0  0
  4  5  1  0  0  0  0
  5 11  1  6  0  0  0
  5 10  1  0  0  0  0
  6  5  1  1  0  0  0
  6  7  1  0  0  0  0
  7 22  1  6  0  0  0
  7  8  1  0  0  0  0
  8  9  1  0  0  0  0
  8 26  1  1  0  0  0
  9 28  1  6  0  0  0
 10  9  1  0  0  0  0
 12 21  1  0  0  0  0
 13 12  2  0  0  0  0
 14 15  2  0  0  0  0
 14 13  1  0  0  0  0
 15 20  1  0  0  0  0
 16 17  2  0  0  0  0
 16 15  1  0  0  0  0
 17 18  1  0  0  0  0
 18 19  2  0  0  0  0
 20 19  1  0  0  0  0
 20 21  2  0  0  0  0
 23 22  1  0  0  0  0
 24 25  1  0  0  0  0
 24  6  1  0  0  0  0
 26 27  1  0  0  0  0
 29 30  1  0  0  0  0
 29 28  1  0  0  0  0
M  END
>  <minimizedAffinity>
-9.97944832

$$$$

 OpenBabel12271915003D

 30 33  0  0  1  0  0  0  0  0999 V2000
    8.9970   47.3670   42.2280 C   0  0  1  0  0  0  0  0  0  0  0  0
    9.6170   46.3020   42.9230 N   0  0  0  0  0  0  0  0  0  0  0  0
    8.9360   45.8280   43.5480 H   0  0  0  0  0  0  0  0  0  0  0  0
    9.7920   45.3020   41.8760 O   0  0  0  0  0  0  0  0  0  0  0  0
    8.6490   45.3710   41.0350 C   0  0  2  0  0  0  0  0  0  0  0  0
    7.8400   44.1060   41.3740 C   0  0  1  0  0  0  0  0  0  0  0  0
    8.4710   42.9320   40.6860 C   0  0  2  0  0  0  0  0  0  0  0  0
    8.2800   43.1330   39.1730 C   0  0  1  0  0  0  0  0  0  0  0  0
    8.6670   44.5650   38.6860 C   0  0  2  0  0  0  0  0  0  0  0  0
    9.1140   45.4570   39.6930 O   0  0  0  0  0  0  0  0  0  0  0  0
    7.9660   46.6500   41.3810 C   0  0  0  0  0  0  0  0  0  0  0  0
    8.4430   48.4470   43.1250 C   0  0  0  0  0  0  0  0  0  0  0  0
    8.3710   48.3690   44.5030 C   0  0  0  0  0  0  0  0  0  0  0  0
    7.8760   49.4330   45.2590 C   0  0  0  0  0  0  0  0  0  0  0  0
    7.4190   50.5970   44.5900 C   0  0  0  0  0  0  0  0  0  0  0  0
    6.9190   51.6910   45.3150 C   0  0  0  0  0  0  0  0  0  0  0  0
    6.4730   52.8230   44.6250 C   0  0  0  0  0  0  0  0  0  0  0  0
    6.5260   52.8910   43.2400 C   0  0  0  0  0  0  0  0  0  0  0  0
    7.0260   51.8100   42.5140 C   0  0  0  0  0  0  0  0  0  0  0  0
    7.4630   50.6640   43.2060 C   0  0  0  0  0  0  0  0  0  0  0  0
    7.9530   49.5960   42.4690 C   0  0  0  0  0  0  0  0  0  0  0  0
    7.8760   41.7060   41.1010 O   0  0  0  0  0  0  0  0  0  0  0  0
    7.1100   41.9160   41.6980 H   0  0  0  0  0  0  0  0  0  0  0  0
    7.7230   43.8310   42.8050 O   0  0  0  0  0  0  0  0  0  0  0  0
    8.5460   43.3680   43.0630 H   0  0  0  0  0  0  0  0  0  0  0  0
    9.0410   42.1200   38.4910 O   0  0  0  0  0  0  0  0  0  0  0  0
    9.3390   42.4800   37.6000 H   0  0  0  0  0  0  0  0  0  0  0  0
    7.5380   45.2040   37.8720 C   0  0  0  0  0  0  0  0  0  0  0  0
    6.4740   44.2960   37.6370 O   0  0  0  0  0  0  0  0  0  0  0  0
    6.7130   43.7400   36.8710 H   0  0  0  0  0  0  0  0  0  0  0  0
  1  2  1  0  0  0  0
  1 12  1  1  0  0  0
  2  3  1  0  0  0  0
  4  2  1  0  0  0  0
  5 11  1  1  0  0  0
  5  4  1  0  0  0  0
  6  5  1  1  0  0  0
  6 24  1  0  0  0  0
  7 22  1  1  0  0  0
  7  6  1  0  0  0  0
  8 26  1  6  0  0  0
  8  7  1  0  0  0  0
  9 28  1  1  0  0  0
  9  8  1  0  0  0  0
  9 10  1  0  0  0  0
 10  5  1  0  0  0  0
 11  1  1  0  0  0  0
 12 13  1  0  0  0  0
 13 14  2  0  0  0  0
 15 14  1  0  0  0  0
 15 16  2  0  0  0  0
 17 16  1  0  0  0  0
 18 17  2  0  0  0  0
 19 20  2  0  0  0  0
 19 18  1  0  0  0  0
 20 15  1  0  0  0  0
 21 12  2  0  0  0  0
 21 20  1  0  0  0  0
 22 23  1  0  0  0  0
 24 25  1  0  0  0  0
 27 26  1  0  0  0  0
 29 28  1  0  0  0  0
 30 29  1  0  0  0  0
M  END
>  <minimizedAffinity>
-9.76437283

$$$$

 OpenBabel12271915003D

 30 33  0  0  1  0  0  0  0  0999 V2000
    8.5120   47.2920   42.0160 C   0  0  1  0  0  0  0  0  0  0  0  0
    9.4060   46.9770   43.0650 N   0  0  0  0  0  0  0  0  0  0  0  0
    8.9260   47.0400   43.9850 H   0  0  0  0  0  0  0  0  0  0  0  0
    9.5670   45.5350   42.9210 O   0  0  0  0  0  0  0  0  0  0  0  0
    8.3040   45.0090   42.5370 C   0  0  2  0  0  0  0  0  0  0  0  0
    7.7820   44.2920   43.7950 C   0  0  1  0  0  0  0  0  0  0  0  0
    8.4750   42.9670   43.9170 C   0  0  2  0  0  0  0  0  0  0  0  0
    8.0050   42.0960   42.7390 C   0  0  1  0  0  0  0  0  0  0  0  0
    8.0630   42.8340   41.3640 C   0  0  2  0  0  0  0  0  0  0  0  0
    8.5180   44.1760   41.4040 O   0  0  0  0  0  0  0  0  0  0  0  0
    7.4870   46.1820   42.1130 C   0  0  0  0  0  0  0  0  0  0  0  0
    7.9450   48.6890   42.0880 C   0  0  0  0  0  0  0  0  0  0  0  0
    7.1590   49.2730   41.1120 C   0  0  0  0  0  0  0  0  0  0  0  0
    6.6450   50.5610   41.2760 C   0  0  0  0  0  0  0  0  0  0  0  0
    6.9620   51.2810   42.4560 C   0  0  0  0  0  0  0  0  0  0  0  0
    6.4600   52.5760   42.6630 C   0  0  0  0  0  0  0  0  0  0  0  0
    6.7940   53.2610   43.8360 C   0  0  0  0  0  0  0  0  0  0  0  0
    7.6000   52.6810   44.8050 C   0  0  0  0  0  0  0  0  0  0  0  0
    8.0980   51.3920   44.6090 C   0  0  0  0  0  0  0  0  0  0  0  0
    7.7740   50.7070   43.4220 C   0  0  0  0  0  0  0  0  0  0  0  0
    8.2810   49.4280   43.2420 C   0  0  0  0  0  0  0  0  0  0  0  0
    8.1680   42.3320   45.1550 O   0  0  0  0  0  0  0  0  0  0  0  0
    7.4880   42.8820   45.6270 H   0  0  0  0  0  0  0  0  0  0  0  0
    7.9530   45.0500   45.0340 O   0  0  0  0  0  0  0  0  0  0  0  0
    8.8720   44.8890   45.3290 H   0  0  0  0  0  0  0  0  0  0  0  0
    8.7970   40.8960   42.7290 O   0  0  0  0  0  0  0  0  0  0  0  0
    8.8790   40.5670   41.7820 H   0  0  0  0  0  0  0  0  0  0  0  0
    6.7240   42.7480   40.6240 C   0  0  0  0  0  0  0  0  0  0  0  0
    6.7000   43.5790   39.4760 O   0  0  0  0  0  0  0  0  0  0  0  0
    6.4830   44.4860   39.7630 H   0  0  0  0  0  0  0  0  0  0  0  0
  1 12  1  1  0  0  0
  1 11  1  0  0  0  0
  1  2  1  0  0  0  0
  2  3  1  0  0  0  0
  4  2  1  0  0  0  0
  5 11  1  6  0  0  0
  5  4  1  0  0  0  0
  6  5  1  6  0  0  0
  6  7  1  0  0  0  0
  6 24  1  0  0  0  0
  7 22  1  1  0  0  0
  8 26  1  6  0  0  0
  8  7  1  0  0  0  0
  9 28  1  1  0  0  0
  9 10  1  0  0  0  0
  9  8  1  0  0  0  0
 10  5  1  0  0  0  0
 12 21  2  0  0  0  0
 13 14  2  0  0  0  0
 13 12  1  0  0  0  0
 14 15  1  0  0  0  0
 15 16  2  0  0  0  0
 15 20  1  0  0  0  0
 16 17  1  0  0  0  0
 17 18  2  0  0  0  0
 19 18  1  0  0  0  0
 20 19  2  0  0  0  0
 21 20  1  0  0  0  0
 22 23  1  0  0  0  0
 24 25  1  0  0  0  0
 27 26  1  0  0  0  0
 29 30  1  0  0  0  0
 29 28  1  0  0  0  0
M  END
>  <minimizedAffinity>
-9.74844742

$$$$

 OpenBabel12271915003D

 30 33  0  0  1  0  0  0  0  0999 V2000
    7.6390   46.5800   46.6610 C   0  0  1  0  0  0  0  0  0  0  0  0
    8.7540   45.7140   46.7300 N   0  0  0  0  0  0  0  0  0  0  0  0
    9.6310   46.2300   46.5220 H   0  0  0  0  0  0  0  0  0  0  0  0
    8.8870   45.4840   48.1630 O   0  0  0  0  0  0  0  0  0  0  0  0
    8.5730   46.7060   48.8150 C   0  0  2  0  0  0  0  0  0  0  0  0
    9.9270   47.2430   49.3110 C   0  0  1  0  0  0  0  0  0  0  0  0
   10.3150   46.4970   50.5540 C   0  0  2  0  0  0  0  0  0  0  0  0
    9.3080   46.8840   51.6510 C   0  0  1  0  0  0  0  0  0  0  0  0
    7.8220   46.8060   51.1800 C   0  0  2  0  0  0  0  0  0  0  0  0
    7.6230   46.4120   49.8320 O   0  0  0  0  0  0  0  0  0  0  0  0
    7.9130   47.5580   47.7840 C   0  0  0  0  0  0  0  0  0  0  0  0
    7.4310   47.2110   45.3060 C   0  0  0  0  0  0  0  0  0  0  0  0
    7.0270   46.5300   44.1720 C   0  0  0  0  0  0  0  0  0  0  0  0
    6.8250   47.2000   42.9650 C   0  0  0  0  0  0  0  0  0  0  0  0
    7.0650   48.5970   42.9050 C   0  0  0  0  0  0  0  0  0  0  0  0
    6.8670   49.3090   41.7110 C   0  0  0  0  0  0  0  0  0  0  0  0
    7.1160   50.6850   41.6840 C   0  0  0  0  0  0  0  0  0  0  0  0
    7.5420   51.3620   42.8180 C   0  0  0  0  0  0  0  0  0  0  0  0
    7.7360   50.6630   44.0090 C   0  0  0  0  0  0  0  0  0  0  0  0
    7.4990   49.2750   44.0340 C   0  0  0  0  0  0  0  0  0  0  0  0
    7.7000   48.5940   45.2250 C   0  0  0  0  0  0  0  0  0  0  0  0
   11.6410   46.8230   50.9620 O   0  0  0  0  0  0  0  0  0  0  0  0
   11.9820   47.5440   50.3690 H   0  0  0  0  0  0  0  0  0  0  0  0
   11.0070   47.1540   48.3280 O   0  0  0  0  0  0  0  0  0  0  0  0
   11.3530   46.2400   48.3850 H   0  0  0  0  0  0  0  0  0  0  0  0
    9.5470   46.0390   52.7900 O   0  0  0  0  0  0  0  0  0  0  0  0
    8.6810   45.9070   53.2850 H   0  0  0  0  0  0  0  0  0  0  0  0
    7.0730   48.1110   51.4690 C   0  0  0  0  0  0  0  0  0  0  0  0
    7.9190   49.2430   51.3560 O   0  0  0  0  0  0  0  0  0  0  0  0
    8.4110   49.3390   52.1940 H   0  0  0  0  0  0  0  0  0  0  0  0
  1 12  1  6  0  0  0
  1  2  1  0  0  0  0
  1 11  1  0  0  0  0
  2  4  1  0  0  0  0
  3  2  1  0  0  0  0
  4  5  1  0  0  0  0
  5 11  1  6  0  0  0
  5 10  1  0  0  0  0
  6  5  1  6  0  0  0
  6  7  1  0  0  0  0
  7 22  1  1  0  0  0
  7  8  1  0  0  0  0
  8 26  1  1  0  0  0
  9 28  1  6  0  0  0
  9  8  1  0  0  0  0
 10  9  1  0  0  0  0
 13 12  2  0  0  0  0
 14 13  1  0  0  0  0
 15 14  2  0  0  0  0
 15 20  1  0  0  0  0
 16 15  1  0  0  0  0
 17 16  2  0  0  0  0
 17 18  1  0  0  0  0
 18 19  2  0  0  0  0
 19 20  1  0  0  0  0
 20 21  2  0  0  0  0
 21 12  1  0  0  0  0
 23 22  1  0  0  0  0
 24 25  1  0  0  0  0
 24  6  1  0  0  0  0
 26 27  1  0  0  0  0
 29 28  1  0  0  0  0
 29 30  1  0  0  0  0
M  END
>  <minimizedAffinity>
-9.57975864

$$$$

 OpenBabel12271915003D

 30 33  0  0  1  0  0  0  0  0999 V2000
    7.9220   46.4510   43.9290 C   0  0  1  0  0  0  0  0  0  0  0  0
    9.2640   46.0050   43.8900 N   0  0  0  0  0  0  0  0  0  0  0  0
    9.9120   46.8080   43.7740 H   0  0  0  0  0  0  0  0  0  0  0  0
    9.5130   45.6300   45.2770 O   0  0  0  0  0  0  0  0  0  0  0  0
    8.8310   46.5710   46.0940 C   0  0  2  0  0  0  0  0  0  0  0  0
    9.9460   47.4530   46.6860 C   0  0  1  0  0  0  0  0  0  0  0  0
   10.6000   46.7090   47.8130 C   0  0  2  0  0  0  0  0  0  0  0  0
    9.5590   46.5770   48.9370 C   0  0  1  0  0  0  0  0  0  0  0  0
    8.1680   46.0760   48.4350 C   0  0  2  0  0  0  0  0  0  0  0  0
    8.0670   45.8360   47.0410 O   0  0  0  0  0  0  0  0  0  0  0  0
    7.8920   47.2930   45.1870 C   0  0  0  0  0  0  0  0  0  0  0  0
    7.4730   47.1630   42.6770 C   0  0  0  0  0  0  0  0  0  0  0  0
    6.7170   48.3210   42.6550 C   0  0  0  0  0  0  0  0  0  0  0  0
    6.3750   48.9340   41.4490 C   0  0  0  0  0  0  0  0  0  0  0  0
    6.7930   48.3370   40.2320 C   0  0  0  0  0  0  0  0  0  0  0  0
    6.4740   48.9260   38.9980 C   0  0  0  0  0  0  0  0  0  0  0  0
    6.8980   48.3110   37.8160 C   0  0  0  0  0  0  0  0  0  0  0  0
    7.6380   47.1370   37.8390 C   0  0  0  0  0  0  0  0  0  0  0  0
    7.9620   46.5490   39.0610 C   0  0  0  0  0  0  0  0  0  0  0  0
    7.5250   47.1600   40.2520 C   0  0  0  0  0  0  0  0  0  0  0  0
    7.8520   46.5600   41.4590 C   0  0  0  0  0  0  0  0  0  0  0  0
   11.7550   47.3970   48.2870 O   0  0  0  0  0  0  0  0  0  0  0  0
   11.8180   48.2670   47.8110 H   0  0  0  0  0  0  0  0  0  0  0  0
   10.9610   47.8700   45.7190 O   0  0  0  0  0  0  0  0  0  0  0  0
   11.5930   47.1260   45.6480 H   0  0  0  0  0  0  0  0  0  0  0  0
   10.1020   45.7070   49.9460 O   0  0  0  0  0  0  0  0  0  0  0  0
    9.3460   45.2240   50.4010 H   0  0  0  0  0  0  0  0  0  0  0  0
    7.0380   47.0010   48.8990 C   0  0  0  0  0  0  0  0  0  0  0  0
    5.9470   46.9990   47.9940 O   0  0  0  0  0  0  0  0  0  0  0  0
    6.1550   47.6170   47.2670 H   0  0  0  0  0  0  0  0  0  0  0  0
  1 12  1  6  0  0  0
  1 11  1  0  0  0  0
  2  1  1  0  0  0  0
  2  4  1  0  0  0  0
  3  2  1  0  0  0  0
  4  5  1  0  0  0  0
  5 11  1  6  0  0  0
  5 10  1  0  0  0  0
  6  5  1  6  0  0  0
  6  7  1  0  0  0  0
  7 22  1  1  0  0  0
  7  8  1  0  0  0  0
  8 26  1  1  0  0  0
  9 28  1  6  0  0  0
  9  8  1  0  0  0  0
 10  9  1  0  0  0  0
 13 12  1  0  0  0  0
 14 13  2  0  0  0  0
 15 20  1  0  0  0  0
 15 14  1  0  0  0  0
 16 15  2  0  0  0  0
 17 18  2  0  0  0  0
 17 16  1  0  0  0  0
 18 19  1  0  0  0  0
 19 20  2  0  0  0  0
 20 21  1  0  0  0  0
 21 12  2  0  0  0  0
 23 22  1  0  0  0  0
 24  6  1  0  0  0  0
 25 24  1  0  0  0  0
 26 27  1  0  0  0  0
 29 28  1  0  0  0  0
 30 29  1  0  0  0  0
M  END
>  <minimizedAffinity>
-9.44920254

$$$$

 OpenBabel12271915003D

 30 33  0  0  1  0  0  0  0  0999 V2000
    7.1010   48.2200   43.9990 C   0  0  1  0  0  0  0  0  0  0  0  0
    6.4130   47.1090   43.4580 N   0  0  0  0  0  0  0  0  0  0  0  0
    6.8770   46.7810   42.5880 H   0  0  0  0  0  0  0  0  0  0  0  0
    6.7570   46.0410   44.3890 O   0  0  0  0  0  0  0  0  0  0  0  0
    8.1070   46.2440   44.7800 C   0  0  2  0  0  0  0  0  0  0  0  0
    8.8940   45.1410   44.0490 C   0  0  1  0  0  0  0  0  0  0  0  0
    8.7090   43.8480   44.7870 C   0  0  2  0  0  0  0  0  0  0  0  0
    9.4060   43.9970   46.1510 C   0  0  1  0  0  0  0  0  0  0  0  0
    9.0420   45.3240   46.8890 C   0  0  2  0  0  0  0  0  0  0  0  0
    8.1510   46.1870   46.2000 O   0  0  0  0  0  0  0  0  0  0  0  0
    8.4500   47.6310   44.3520 C   0  0  0  0  0  0  0  0  0  0  0  0
    7.1510   49.4190   43.0840 C   0  0  0  0  0  0  0  0  0  0  0  0
    6.8770   49.3900   41.7290 C   0  0  0  0  0  0  0  0  0  0  0  0
    6.9120   50.5560   40.9630 C   0  0  0  0  0  0  0  0  0  0  0  0
    7.2610   51.7800   41.5890 C   0  0  0  0  0  0  0  0  0  0  0  0
    7.3020   52.9760   40.8540 C   0  0  0  0  0  0  0  0  0  0  0  0
    7.6530   54.1660   41.5010 C   0  0  0  0  0  0  0  0  0  0  0  0
    7.9480   54.1890   42.8570 C   0  0  0  0  0  0  0  0  0  0  0  0
    7.9050   53.0060   43.5950 C   0  0  0  0  0  0  0  0  0  0  0  0
    7.5650   51.8050   42.9420 C   0  0  0  0  0  0  0  0  0  0  0  0
    7.5310   50.6370   43.6890 C   0  0  0  0  0  0  0  0  0  0  0  0
    9.2650   42.7530   44.0640 O   0  0  0  0  0  0  0  0  0  0  0  0
    9.7300   43.1120   43.2630 H   0  0  0  0  0  0  0  0  0  0  0  0
    8.5200   44.9630   42.6470 O   0  0  0  0  0  0  0  0  0  0  0  0
    7.7260   44.3910   42.6460 H   0  0  0  0  0  0  0  0  0  0  0  0
    9.0790   42.8440   46.9460 O   0  0  0  0  0  0  0  0  0  0  0  0
    9.0790   43.1060   47.9170 H   0  0  0  0  0  0  0  0  0  0  0  0
   10.2980   46.0890   47.3190 C   0  0  0  0  0  0  0  0  0  0  0  0
    9.9780   47.2950   47.9920 O   0  0  0  0  0  0  0  0  0  0  0  0
    9.7930   47.9780   47.3180 H   0  0  0  0  0  0  0  0  0  0  0  0
  1 12  1  6  0  0  0
  1 11  1  0  0  0  0
  2  1  1  0  0  0  0
  2  4  1  0  0  0  0
  3  2  1  0  0  0  0
  4  5  1  0  0  0  0
  5 11  1  6  0  0  0
  5 10  1  0  0  0  0
  6  5  1  1  0  0  0
  6  7  1  0  0  0  0
  7 22  1  6  0  0  0
  7  8  1  0  0  0  0
  8  9  1  0  0  0  0
  8 26  1  1  0  0  0
  9 28  1  6  0  0  0
 10  9  1  0  0  0  0
 12 21  1  0  0  0  0
 13 12  2  0  0  0  0
 14 15  2  0  0  0  0
 14 13  1  0  0  0  0
 15 20  1  0  0  0  0
 16 17  2  0  0  0  0
 16 15  1  0  0  0  0
 17 18  1  0  0  0  0
 18 19  2  0  0  0  0
 20 19  1  0  0  0  0
 20 21  2  0  0  0  0
 23 22  1  0  0  0  0
 24  6  1  0  0  0  0
 25 24  1  0  0  0  0
 26 27  1  0  0  0  0
 28 29  1  0  0  0  0
 30 29  1  0  0  0  0
M  END
>  <minimizedAffinity>
-9.38607025

$$$$

 OpenBabel12271915003D

 30 33  0  0  1  0  0  0  0  0999 V2000
    6.9850   47.9960   42.6280 C   0  0  1  0  0  0  0  0  0  0  0  0
    6.2970   47.9030   41.3950 N   0  0  0  0  0  0  0  0  0  0  0  0
    6.8550   48.3330   40.6320 H   0  0  0  0  0  0  0  0  0  0  0  0
    6.4130   46.4850   41.0760 O   0  0  0  0  0  0  0  0  0  0  0  0
    7.7040   46.0650   41.4960 C   0  0  2  0  0  0  0  0  0  0  0  0
    8.4980   45.8830   40.1900 C   0  0  1  0  0  0  0  0  0  0  0  0
    8.1030   44.5780   39.5640 C   0  0  2  0  0  0  0  0  0  0  0  0
    8.6030   43.4580   40.4920 C   0  0  1  0  0  0  0  0  0  0  0  0
    8.2420   43.6930   41.9930 C   0  0  2  0  0  0  0  0  0  0  0  0
    7.5340   44.8880   42.2760 O   0  0  0  0  0  0  0  0  0  0  0  0
    8.2160   47.1500   42.3820 C   0  0  0  0  0  0  0  0  0  0  0  0
    7.2650   49.4110   43.0710 C   0  0  0  0  0  0  0  0  0  0  0  0
    7.6170   49.7810   44.3560 C   0  0  0  0  0  0  0  0  0  0  0  0
    7.8940   51.1120   44.6720 C   0  0  0  0  0  0  0  0  0  0  0  0
    7.7840   52.0960   43.6560 C   0  0  0  0  0  0  0  0  0  0  0  0
    8.0590   53.4450   43.9320 C   0  0  0  0  0  0  0  0  0  0  0  0
    7.9390   54.3920   42.9090 C   0  0  0  0  0  0  0  0  0  0  0  0
    7.5650   54.0220   41.6250 C   0  0  0  0  0  0  0  0  0  0  0  0
    7.2940   52.6830   41.3430 C   0  0  0  0  0  0  0  0  0  0  0  0
    7.4020   51.7300   42.3750 C   0  0  0  0  0  0  0  0  0  0  0  0
    7.1250   50.4040   42.0780 C   0  0  0  0  0  0  0  0  0  0  0  0
    8.6700   44.4330   38.2640 O   0  0  0  0  0  0  0  0  0  0  0  0
    9.2750   45.2040   38.0990 H   0  0  0  0  0  0  0  0  0  0  0  0
    8.3210   46.9640   39.2210 O   0  0  0  0  0  0  0  0  0  0  0  0
    7.4920   46.7670   38.7390 H   0  0  0  0  0  0  0  0  0  0  0  0
    8.0710   42.2110   40.0100 O   0  0  0  0  0  0  0  0  0  0  0  0
    7.9500   41.5850   40.7880 H   0  0  0  0  0  0  0  0  0  0  0  0
    9.4790   43.5810   42.8910 C   0  0  0  0  0  0  0  0  0  0  0  0
   10.5020   44.4800   42.4970 O   0  0  0  0  0  0  0  0  0  0  0  0
   10.9980   44.0720   41.7620 H   0  0  0  0  0  0  0  0  0  0  0  0
  1 12  1  6  0  0  0
  2  1  1  0  0  0  0
  3  2  1  0  0  0  0
  4  2  1  0  0  0  0
  4  5  1  0  0  0  0
  5 10  1  0  0  0  0
  5 11  1  1  0  0  0
  6  5  1  1  0  0  0
  7 22  1  6  0  0  0
  7  6  1  0  0  0  0
  7  8  1  0  0  0  0
  8 26  1  6  0  0  0
  8  9  1  0  0  0  0
  9 10  1  0  0  0  0
  9 28  1  1  0  0  0
 11  1  1  0  0  0  0
 12 13  2  0  0  0  0
 13 14  1  0  0  0  0
 15 16  1  0  0  0  0
 15 14  2  0  0  0  0
 17 16  2  0  0  0  0
 18 17  1  0  0  0  0
 19 18  2  0  0  0  0
 19 20  1  0  0  0  0
 20 15  1  0  0  0  0
 21 20  2  0  0  0  0
 21 12  1  0  0  0  0
 23 22  1  0  0  0  0
 24  6  1  0  0  0  0
 25 24  1  0  0  0  0
 26 27  1  0  0  0  0
 29 28  1  0  0  0  0
 30 29  1  0  0  0  0
M  END
>  <minimizedAffinity>
-9.37032795

$$$$

 OpenBabel12271915003D

 30 33  0  0  1  0  0  0  0  0999 V2000
    7.4170   47.9630   46.2210 C   0  0  1  0  0  0  0  0  0  0  0  0
    6.7430   46.7320   46.3930 N   0  0  0  0  0  0  0  0  0  0  0  0
    7.1270   46.0120   45.7500 H   0  0  0  0  0  0  0  0  0  0  0  0
    7.2500   46.2700   47.6800 O   0  0  0  0  0  0  0  0  0  0  0  0
    8.6200   46.6380   47.7460 C   0  0  2  0  0  0  0  0  0  0  0  0
    9.3870   45.3150   47.5660 C   0  0  1  0  0  0  0  0  0  0  0  0
    9.3630   44.5640   48.8650 C   0  0  2  0  0  0  0  0  0  0  0  0
   10.1950   45.3720   49.8750 C   0  0  1  0  0  0  0  0  0  0  0  0
    9.8350   46.8910   49.8970 C   0  0  2  0  0  0  0  0  0  0  0  0
    8.8240   47.2970   48.9900 O   0  0  0  0  0  0  0  0  0  0  0  0
    8.8300   47.6250   46.6480 C   0  0  0  0  0  0  0  0  0  0  0  0
    7.2940   48.5440   44.8340 C   0  0  0  0  0  0  0  0  0  0  0  0
    7.0320   47.8120   43.6920 C   0  0  0  0  0  0  0  0  0  0  0  0
    6.8990   48.4370   42.4510 C   0  0  0  0  0  0  0  0  0  0  0  0
    7.0620   49.8440   42.3690 C   0  0  0  0  0  0  0  0  0  0  0  0
    6.9300   50.5110   41.1410 C   0  0  0  0  0  0  0  0  0  0  0  0
    7.1000   51.8990   41.0930 C   0  0  0  0  0  0  0  0  0  0  0  0
    7.3840   52.6300   42.2380 C   0  0  0  0  0  0  0  0  0  0  0  0
    7.5120   51.9740   43.4630 C   0  0  0  0  0  0  0  0  0  0  0  0
    7.3540   50.5750   43.5100 C   0  0  0  0  0  0  0  0  0  0  0  0
    7.4890   49.9380   44.7350 C   0  0  0  0  0  0  0  0  0  0  0  0
    9.9010   43.2530   48.7160 O   0  0  0  0  0  0  0  0  0  0  0  0
   10.2520   43.1620   47.7910 H   0  0  0  0  0  0  0  0  0  0  0  0
    8.8730   44.4610   46.4960 O   0  0  0  0  0  0  0  0  0  0  0  0
    8.1190   43.9670   46.8790 H   0  0  0  0  0  0  0  0  0  0  0  0
   10.0270   44.7700   51.1710 O   0  0  0  0  0  0  0  0  0  0  0  0
   10.1190   45.4820   51.8750 H   0  0  0  0  0  0  0  0  0  0  0  0
   11.0820   47.7650   49.7310 C   0  0  0  0  0  0  0  0  0  0  0  0
   11.8290   47.8560   50.9320 O   0  0  0  0  0  0  0  0  0  0  0  0
   11.4210   48.5440   51.4920 H   0  0  0  0  0  0  0  0  0  0  0  0
  1 12  1  6  0  0  0
  1  2  1  0  0  0  0
  1 11  1  0  0  0  0
  2  4  1  0  0  0  0
  3  2  1  0  0  0  0
  4  5  1  0  0  0  0
  5 11  1  6  0  0  0
  5 10  1  0  0  0  0
  6  5  1  1  0  0  0
  6  7  1  0  0  0  0
  7 22  1  6  0  0  0
  7  8  1  0  0  0  0
  8  9  1  0  0  0  0
  8 26  1  1  0  0  0
  9 28  1  6  0  0  0
 10  9  1  0  0  0  0
 13 12  2  0  0  0  0
 14 13  1  0  0  0  0
 15 14  2  0  0  0  0
 15 20  1  0  0  0  0
 16 15  1  0  0  0  0
 17 16  2  0  0  0  0
 17 18  1  0  0  0  0
 18 19  2  0  0  0  0
 19 20  1  0  0  0  0
 20 21  2  0  0  0  0
 21 12  1  0  0  0  0
 23 22  1  0  0  0  0
 24 25  1  0  0  0  0
 24  6  1  0  0  0  0
 26 27  1  0  0  0  0
 28 29  1  0  0  0  0
 29 30  1  0  0  0  0
M  END
>  <minimizedAffinity>
-9.17953205

$$$$
