
 OpenBabel12271915003D

 27 29  0  0  1  0  0  0  0  0999 V2000
    7.4170   48.2590   44.1460 C   0  0  1  0  0  0  0  0  0  0  0  0
    8.1890   47.1370   43.6900 N   0  0  0  0  0  0  0  0  0  0  0  0
    7.6070   46.2730   43.4180 H   0  0  0  0  0  0  0  0  0  0  0  0
    8.8890   46.6010   44.9270 O   0  0  0  0  0  0  0  0  0  0  0  0
    8.8000   47.7230   45.8740 C   0  0  2  0  0  0  0  0  0  0  0  0
   10.1500   48.0270   46.5330 C   0  0  1  0  0  0  0  0  0  0  0  0
   10.4230   47.1170   47.7320 C   0  0  2  0  0  0  0  0  0  0  0  0
    9.2360   47.2140   48.6590 C   0  0  1  0  0  0  0  0  0  0  0  0
    8.0260   46.6670   47.9240 C   0  0  2  0  0  0  0  0  0  0  0  0
    7.7310   47.5310   46.8300 O   0  0  0  0  0  0  0  0  0  0  0  0
    8.3690   48.9230   45.1020 C   0  0  0  0  0  0  0  0  0  0  0  0
    7.1580   49.1260   42.9500 C   0  0  0  0  0  0  0  0  0  0  0  0
    7.3780   50.5170   42.9870 C   0  0  0  0  0  0  0  0  0  0  0  0
    7.1180   51.3500   41.8750 C   0  0  0  0  0  0  0  0  0  0  0  0
    6.6330   50.7670   40.7260 C   0  0  0  0  0  0  0  0  0  0  0  0
    6.3650   51.6480   39.5170 C   0  0  0  0  0  0  0  0  0  0  0  0
    6.4210   49.4010   40.6490 C   0  0  0  0  0  0  0  0  0  0  0  0
    6.6840   48.5870   41.7570 C   0  0  0  0  0  0  0  0  0  0  0  0
   11.6400   47.5950   48.4060 O   0  0  0  0  0  0  0  0  0  0  0  0
   11.5590   48.5670   48.4740 H   0  0  0  0  0  0  0  0  0  0  0  0
   11.1990   47.8840   45.5250 O   0  0  0  0  0  0  0  0  0  0  0  0
   11.9140   48.5500   45.7510 H   0  0  0  0  0  0  0  0  0  0  0  0
    9.4560   46.5200   49.9120 O   0  0  0  0  0  0  0  0  0  0  0  0
    9.0120   45.6530   49.8890 H   0  0  0  0  0  0  0  0  0  0  0  0
    6.7810   46.7530   48.7830 C   0  0  0  0  0  0  0  0  0  0  0  0
    6.8760   47.9860   49.5700 O   0  0  0  0  0  0  0  0  0  0  0  0
    6.6250   47.7370   50.4880 H   0  0  0  0  0  0  0  0  0  0  0  0
  1 12  1  6  0  0  0
  1 11  1  0  0  0  0
  2  1  1  0  0  0  0
  2  4  1  0  0  0  0
  3  2  1  0  0  0  0
  4  5  1  0  0  0  0
  5 11  1  6  0  0  0
  5 10  1  0  0  0  0
  6  5  1  6  0  0  0
  6  7  1  0  0  0  0
  7 19  1  1  0  0  0
  7  8  1  0  0  0  0
  8 23  1  1  0  0  0
  9  8  1  0  0  0  0
  9 25  1  1  0  0  0
 10  9  1  0  0  0  0
 12 13  1  0  0  0  0
 14 13  2  0  0  0  0
 15 14  1  0  0  0  0
 16 15  1  0  0  0  0
 17 15  2  0  0  0  0
 17 18  1  0  0  0  0
 18 12  2  0  0  0  0
 19 20  1  0  0  0  0
 21 22  1  0  0  0  0
 21  6  1  0  0  0  0
 24 23  1  0  0  0  0
 25 26  1  0  0  0  0
 26 27  1  0  0  0  0
M  END
>  <minimizedAffinity>
-8.76912212

$$$$

 OpenBabel12271915003D

 27 29  0  0  1  0  0  0  0  0999 V2000
    8.2280   47.7740   42.1570 C   0  0  1  0  0  0  0  0  0  0  0  0
    9.3990   47.5590   42.9590 N   0  0  0  0  0  0  0  0  0  0  0  0
   10.3300   47.7690   42.4600 H   0  0  0  0  0  0  0  0  0  0  0  0
    9.5170   46.0520   43.1050 O   0  0  0  0  0  0  0  0  0  0  0  0
    8.1710   45.5760   42.7510 C   0  0  2  0  0  0  0  0  0  0  0  0
    7.6270   44.5730   43.7750 C   0  0  1  0  0  0  0  0  0  0  0  0
    8.1320   43.1530   43.5130 C   0  0  2  0  0  0  0  0  0  0  0  0
    7.8180   42.8140   42.0760 C   0  0  1  0  0  0  0  0  0  0  0  0
    8.6090   43.7610   41.1920 C   0  0  2  0  0  0  0  0  0  0  0  0
    8.1190   45.0850   41.3910 O   0  0  0  0  0  0  0  0  0  0  0  0
    7.2710   46.7640   42.7290 C   0  0  0  0  0  0  0  0  0  0  0  0
    7.7630   49.1730   42.4280 C   0  0  0  0  0  0  0  0  0  0  0  0
    7.0490   49.9130   41.4640 C   0  0  0  0  0  0  0  0  0  0  0  0
    6.6250   51.2400   41.6970 C   0  0  0  0  0  0  0  0  0  0  0  0
    6.9250   51.8160   42.9110 C   0  0  0  0  0  0  0  0  0  0  0  0
    6.4590   53.2360   43.1820 C   0  0  0  0  0  0  0  0  0  0  0  0
    7.6100   51.1120   43.8880 C   0  0  0  0  0  0  0  0  0  0  0  0
    8.0240   49.7980   43.6450 C   0  0  0  0  0  0  0  0  0  0  0  0
    7.4240   42.2370   44.4210 O   0  0  0  0  0  0  0  0  0  0  0  0
    6.4800   42.4880   44.3920 H   0  0  0  0  0  0  0  0  0  0  0  0
    8.0150   45.0220   45.1120 O   0  0  0  0  0  0  0  0  0  0  0  0
    7.2820   44.7450   45.7370 H   0  0  0  0  0  0  0  0  0  0  0  0
    8.1020   41.4290   41.7600 O   0  0  0  0  0  0  0  0  0  0  0  0
    8.9560   41.3670   41.2950 H   0  0  0  0  0  0  0  0  0  0  0  0
    8.3280   43.5010   39.7260 C   0  0  0  0  0  0  0  0  0  0  0  0
    9.1190   42.3330   39.3280 O   0  0  0  0  0  0  0  0  0  0  0  0
    9.5350   42.5720   38.4690 H   0  0  0  0  0  0  0  0  0  0  0  0
  1 12  1  1  0  0  0
  1 11  1  0  0  0  0
  1  2  1  0  0  0  0
  2  4  1  0  0  0  0
  3  2  1  0  0  0  0
  5 11  1  1  0  0  0
  5  4  1  0  0  0  0
  6  5  1  6  0  0  0
  6 21  1  0  0  0  0
  7  6  1  0  0  0  0
  7 19  1  1  0  0  0
  8 23  1  6  0  0  0
  8  7  1  0  0  0  0
  9 25  1  6  0  0  0
  9 10  1  0  0  0  0
  9  8  1  0  0  0  0
 10  5  1  0  0  0  0
 12 18  2  0  0  0  0
 13 14  2  0  0  0  0
 13 12  1  0  0  0  0
 14 15  1  0  0  0  0
 15 16  1  0  0  0  0
 15 17  2  0  0  0  0
 18 17  1  0  0  0  0
 20 19  1  0  0  0  0
 21 22  1  0  0  0  0
 24 23  1  0  0  0  0
 26 25  1  0  0  0  0
 27 26  1  0  0  0  0
M  END
>  <minimizedAffinity>
-8.38995647

$$$$

 OpenBabel12271915003D

 27 29  0  0  1  0  0  0  0  0999 V2000
    7.1950   48.1990   42.5720 C   0  0  1  0  0  0  0  0  0  0  0  0
    6.1130   48.2110   41.6280 N   0  0  0  0  0  0  0  0  0  0  0  0
    5.1430   48.0180   42.0540 H   0  0  0  0  0  0  0  0  0  0  0  0
    6.2880   46.9490   40.8000 O   0  0  0  0  0  0  0  0  0  0  0  0
    7.6860   46.5730   41.0540 C   0  0  2  0  0  0  0  0  0  0  0  0
    8.4450   46.2620   39.7580 C   0  0  1  0  0  0  0  0  0  0  0  0
    8.2080   44.8270   39.2850 C   0  0  2  0  0  0  0  0  0  0  0  0
    8.5320   43.9060   40.4360 C   0  0  1  0  0  0  0  0  0  0  0  0
    7.5460   44.1960   41.5530 C   0  0  2  0  0  0  0  0  0  0  0  0
    7.7840   45.5150   42.0380 O   0  0  0  0  0  0  0  0  0  0  0  0
    8.3440   47.7330   41.7210 C   0  0  0  0  0  0  0  0  0  0  0  0
    7.3960   49.6140   43.0250 C   0  0  0  0  0  0  0  0  0  0  0  0
    7.1310   50.7050   42.1730 C   0  0  0  0  0  0  0  0  0  0  0  0
    7.3370   52.0430   42.5790 C   0  0  0  0  0  0  0  0  0  0  0  0
    7.8120   52.2710   43.8510 C   0  0  0  0  0  0  0  0  0  0  0  0
    8.0200   53.7050   44.3070 C   0  0  0  0  0  0  0  0  0  0  0  0
    8.0670   51.2230   44.7200 C   0  0  0  0  0  0  0  0  0  0  0  0
    7.8570   49.9030   44.3070 C   0  0  0  0  0  0  0  0  0  0  0  0
    9.1070   44.5630   38.1500 O   0  0  0  0  0  0  0  0  0  0  0  0
    9.9850   44.9100   38.4010 H   0  0  0  0  0  0  0  0  0  0  0  0
    8.0240   47.2210   38.7370 O   0  0  0  0  0  0  0  0  0  0  0  0
    8.8170   47.3840   38.1450 H   0  0  0  0  0  0  0  0  0  0  0  0
    8.5040   42.5100   40.0510 O   0  0  0  0  0  0  0  0  0  0  0  0
    7.6610   42.1090   40.3320 H   0  0  0  0  0  0  0  0  0  0  0  0
    7.8210   43.3250   42.7620 C   0  0  0  0  0  0  0  0  0  0  0  0
    7.1260   43.9280   43.9030 O   0  0  0  0  0  0  0  0  0  0  0  0
    7.7740   43.9210   44.6440 H   0  0  0  0  0  0  0  0  0  0  0  0
  1 12  1  6  0  0  0
  2  3  1  0  0  0  0
  2  1  1  0  0  0  0
  4  5  1  0  0  0  0
  4  2  1  0  0  0  0
  5 11  1  1  0  0  0
  5 10  1  0  0  0  0
  6  5  1  1  0  0  0
  7 19  1  6  0  0  0
  7  6  1  0  0  0  0
  7  8  1  0  0  0  0
  8 23  1  6  0  0  0
  8  9  1  0  0  0  0
  9 10  1  0  0  0  0
  9 25  1  1  0  0  0
 11  1  1  0  0  0  0
 12 18  2  0  0  0  0
 13 14  2  0  0  0  0
 13 12  1  0  0  0  0
 14 15  1  0  0  0  0
 15 16  1  0  0  0  0
 15 17  2  0  0  0  0
 18 17  1  0  0  0  0
 19 20  1  0  0  0  0
 21  6  1  0  0  0  0
 22 21  1  0  0  0  0
 23 24  1  0  0  0  0
 25 26  1  0  0  0  0
 26 27  1  0  0  0  0
M  END
>  <minimizedAffinity>
-8.25601292

$$$$

 OpenBabel12271915003D

 27 29  0  0  1  0  0  0  0  0999 V2000
    8.0490   46.4730   45.6800 C   0  0  1  0  0  0  0  0  0  0  0  0
    8.8260   45.2790   45.8540 N   0  0  0  0  0  0  0  0  0  0  0  0
    8.2480   44.3740   45.9340 H   0  0  0  0  0  0  0  0  0  0  0  0
    9.3780   45.3590   47.2680 O   0  0  0  0  0  0  0  0  0  0  0  0
    9.2300   46.7830   47.6040 C   0  0  2  0  0  0  0  0  0  0  0  0
   10.5150   47.3710   48.1990 C   0  0  1  0  0  0  0  0  0  0  0  0
   10.6330   47.0920   49.6980 C   0  0  2  0  0  0  0  0  0  0  0  0
    9.3610   47.5720   50.3540 C   0  0  1  0  0  0  0  0  0  0  0  0
    8.2160   46.7360   49.8140 C   0  0  2  0  0  0  0  0  0  0  0  0
    8.0620   47.0190   48.4250 O   0  0  0  0  0  0  0  0  0  0  0  0
    8.9200   47.5080   46.3380 C   0  0  0  0  0  0  0  0  0  0  0  0
    7.9420   46.7150   44.2050 C   0  0  0  0  0  0  0  0  0  0  0  0
    6.8080   47.3290   43.6380 C   0  0  0  0  0  0  0  0  0  0  0  0
    6.6840   47.5430   42.2470 C   0  0  0  0  0  0  0  0  0  0  0  0
    7.7150   47.1320   41.4310 C   0  0  0  0  0  0  0  0  0  0  0  0
    7.6030   47.3720   39.9350 C   0  0  0  0  0  0  0  0  0  0  0  0
    8.8520   46.5410   41.9560 C   0  0  0  0  0  0  0  0  0  0  0  0
    8.9630   46.3360   43.3360 C   0  0  0  0  0  0  0  0  0  0  0  0
   11.7890   47.8400   50.2160 O   0  0  0  0  0  0  0  0  0  0  0  0
   11.7340   48.7390   49.8370 H   0  0  0  0  0  0  0  0  0  0  0  0
   11.6560   46.8120   47.4760 O   0  0  0  0  0  0  0  0  0  0  0  0
   12.3660   47.5190   47.4580 H   0  0  0  0  0  0  0  0  0  0  0  0
    9.4290   47.5110   51.8000 O   0  0  0  0  0  0  0  0  0  0  0  0
    8.9610   46.7160   52.1170 H   0  0  0  0  0  0  0  0  0  0  0  0
    6.8930   47.1750   50.4080 C   0  0  0  0  0  0  0  0  0  0  0  0
    6.9270   48.6360   50.5230 O   0  0  0  0  0  0  0  0  0  0  0  0
    6.5820   48.8410   51.4210 H   0  0  0  0  0  0  0  0  0  0  0  0
  1 12  1  6  0  0  0
  1  2  1  0  0  0  0
  1 11  1  0  0  0  0
  2  3  1  0  0  0  0
  2  4  1  0  0  0  0
  4  5  1  0  0  0  0
  5 11  1  6  0  0  0
  5 10  1  0  0  0  0
  6  5  1  6  0  0  0
  6  7  1  0  0  0  0
  7 19  1  1  0  0  0
  7  8  1  0  0  0  0
  8 23  1  1  0  0  0
  9  8  1  0  0  0  0
  9 25  1  1  0  0  0
 10  9  1  0  0  0  0
 13 12  1  0  0  0  0
 14 13  2  0  0  0  0
 15 17  2  0  0  0  0
 15 14  1  0  0  0  0
 16 15  1  0  0  0  0
 17 18  1  0  0  0  0
 18 12  2  0  0  0  0
 20 19  1  0  0  0  0
 21  6  1  0  0  0  0
 22 21  1  0  0  0  0
 23 24  1  0  0  0  0
 25 26  1  0  0  0  0
 26 27  1  0  0  0  0
M  END
>  <minimizedAffinity>
-8.21687412

$$$$

 OpenBabel12271915003D

 27 29  0  0  1  0  0  0  0  0999 V2000
    8.1360   49.7500   45.3170 C   0  0  1  0  0  0  0  0  0  0  0  0
    6.8530   49.3150   45.7930 N   0  0  0  0  0  0  0  0  0  0  0  0
    6.5210   49.7980   46.6950 H   0  0  0  0  0  0  0  0  0  0  0  0
    7.0760   47.9070   46.3200 O   0  0  0  0  0  0  0  0  0  0  0  0
    8.3480   47.5140   45.6960 C   0  0  2  0  0  0  0  0  0  0  0  0
    8.2690   46.1250   45.0520 C   0  0  1  0  0  0  0  0  0  0  0  0
    8.4930   45.0060   46.0700 C   0  0  2  0  0  0  0  0  0  0  0  0
    9.7900   45.2920   46.7860 C   0  0  1  0  0  0  0  0  0  0  0  0
    9.6210   46.5910   47.5530 C   0  0  2  0  0  0  0  0  0  0  0  0
    9.4580   47.6530   46.6150 O   0  0  0  0  0  0  0  0  0  0  0  0
    8.6490   48.5140   44.6310 C   0  0  0  0  0  0  0  0  0  0  0  0
    7.8860   50.8510   44.3310 C   0  0  0  0  0  0  0  0  0  0  0  0
    7.6210   50.5800   42.9730 C   0  0  0  0  0  0  0  0  0  0  0  0
    7.4050   51.6080   42.0290 C   0  0  0  0  0  0  0  0  0  0  0  0
    7.4580   52.9130   42.4640 C   0  0  0  0  0  0  0  0  0  0  0  0
    7.2100   54.0290   41.4630 C   0  0  0  0  0  0  0  0  0  0  0  0
    7.6990   53.2160   43.7940 C   0  0  0  0  0  0  0  0  0  0  0  0
    7.9100   52.1880   44.7200 C   0  0  0  0  0  0  0  0  0  0  0  0
    8.5810   43.7310   45.3410 O   0  0  0  0  0  0  0  0  0  0  0  0
    9.1650   43.8870   44.5740 H   0  0  0  0  0  0  0  0  0  0  0  0
    6.9630   45.9890   44.4090 O   0  0  0  0  0  0  0  0  0  0  0  0
    7.0930   45.4070   43.6030 H   0  0  0  0  0  0  0  0  0  0  0  0
   10.1880   44.2070   47.6610 O   0  0  0  0  0  0  0  0  0  0  0  0
    9.9560   44.4260   48.5820 H   0  0  0  0  0  0  0  0  0  0  0  0
   10.8950   46.9630   48.2830 C   0  0  0  0  0  0  0  0  0  0  0  0
   12.0070   46.7830   47.3440 O   0  0  0  0  0  0  0  0  0  0  0  0
   12.7060   46.3060   47.8470 H   0  0  0  0  0  0  0  0  0  0  0  0
  1 12  1  6  0  0  0
  1  2  1  0  0  0  0
  2  4  1  0  0  0  0
  2  3  1  0  0  0  0
  5 11  1  6  0  0  0
  5  4  1  0  0  0  0
  5 10  1  0  0  0  0
  6  5  1  1  0  0  0
  6  7  1  0  0  0  0
  7 19  1  6  0  0  0
  7  8  1  0  0  0  0
  8  9  1  0  0  0  0
  8 23  1  1  0  0  0
  9 25  1  6  0  0  0
 10  9  1  0  0  0  0
 11  1  1  0  0  0  0
 12 18  1  0  0  0  0
 13 12  2  0  0  0  0
 14 15  2  0  0  0  0
 14 13  1  0  0  0  0
 15 17  1  0  0  0  0
 16 15  1  0  0  0  0
 17 18  2  0  0  0  0
 20 19  1  0  0  0  0
 21  6  1  0  0  0  0
 22 21  1  0  0  0  0
 23 24  1  0  0  0  0
 26 27  1  0  0  0  0
 26 25  1  0  0  0  0
M  END
>  <minimizedAffinity>
-8.11885166

$$$$

 OpenBabel12271915003D

 27 29  0  0  1  0  0  0  0  0999 V2000
    7.3180   48.3000   42.8260 C   0  0  1  0  0  0  0  0  0  0  0  0
    6.0870   47.7890   42.2930 N   0  0  0  0  0  0  0  0  0  0  0  0
    5.2850   47.7130   43.0070 H   0  0  0  0  0  0  0  0  0  0  0  0
    6.3430   46.3140   42.0320 O   0  0  0  0  0  0  0  0  0  0  0  0
    7.8110   46.2260   42.0250 C   0  0  2  0  0  0  0  0  0  0  0  0
    8.3350   45.4470   40.8130 C   0  0  1  0  0  0  0  0  0  0  0  0
    8.3060   43.9360   41.0440 C   0  0  2  0  0  0  0  0  0  0  0  0
    9.0400   43.6560   42.3330 C   0  0  1  0  0  0  0  0  0  0  0  0
    8.2650   44.3140   43.4600 C   0  0  2  0  0  0  0  0  0  0  0  0
    8.3220   45.7280   43.2850 O   0  0  0  0  0  0  0  0  0  0  0  0
    8.3400   47.6180   41.9580 C   0  0  0  0  0  0  0  0  0  0  0  0
    7.3140   49.7810   42.5940 C   0  0  0  0  0  0  0  0  0  0  0  0
    7.7510   50.6840   43.5840 C   0  0  0  0  0  0  0  0  0  0  0  0
    7.7310   52.0830   43.3880 C   0  0  0  0  0  0  0  0  0  0  0  0
    7.2670   52.5640   42.1840 C   0  0  0  0  0  0  0  0  0  0  0  0
    7.2580   54.0660   41.9520 C   0  0  0  0  0  0  0  0  0  0  0  0
    6.8460   51.7050   41.1830 C   0  0  0  0  0  0  0  0  0  0  0  0
    6.8720   50.3220   41.3890 C   0  0  0  0  0  0  0  0  0  0  0  0
    8.9880   43.2840   39.9150 O   0  0  0  0  0  0  0  0  0  0  0  0
    9.8090   43.7890   39.7540 H   0  0  0  0  0  0  0  0  0  0  0  0
    7.5280   45.8090   39.6480 O   0  0  0  0  0  0  0  0  0  0  0  0
    8.1330   45.7680   38.8500 H   0  0  0  0  0  0  0  0  0  0  0  0
    9.2200   42.2380   42.5700 O   0  0  0  0  0  0  0  0  0  0  0  0
    8.5530   41.9240   43.2070 H   0  0  0  0  0  0  0  0  0  0  0  0
    8.9540   44.1000   44.7920 C   0  0  0  0  0  0  0  0  0  0  0  0
    8.5430   42.7850   45.2920 O   0  0  0  0  0  0  0  0  0  0  0  0
    8.3180   42.9180   46.2410 H   0  0  0  0  0  0  0  0  0  0  0  0
  1 12  1  6  0  0  0
  2  1  1  0  0  0  0
  2  3  1  0  0  0  0
  4  2  1  0  0  0  0
  5 11  1  6  0  0  0
  5  4  1  0  0  0  0
  5 10  1  0  0  0  0
  6  7  1  0  0  0  0
  6  5  1  1  0  0  0
  7 19  1  6  0  0  0
  7  8  1  0  0  0  0
  8 23  1  1  0  0  0
  8  9  1  0  0  0  0
  9 25  1  1  0  0  0
 10  9  1  0  0  0  0
 11  1  1  0  0  0  0
 12 13  2  0  0  0  0
 14 13  1  0  0  0  0
 15 14  2  0  0  0  0
 16 15  1  0  0  0  0
 17 18  2  0  0  0  0
 17 15  1  0  0  0  0
 18 12  1  0  0  0  0
 20 19  1  0  0  0  0
 21  6  1  0  0  0  0
 22 21  1  0  0  0  0
 23 24  1  0  0  0  0
 25 26  1  0  0  0  0
 26 27  1  0  0  0  0
M  END
>  <minimizedAffinity>
-8.09641457

$$$$

 OpenBabel12271915003D

 27 29  0  0  1  0  0  0  0  0999 V2000
    7.8050   48.5210   45.9010 C   0  0  1  0  0  0  0  0  0  0  0  0
    6.6990   47.6090   45.9930 N   0  0  0  0  0  0  0  0  0  0  0  0
    5.8600   47.9760   46.5600 H   0  0  0  0  0  0  0  0  0  0  0  0
    7.1690   46.4970   46.9150 O   0  0  0  0  0  0  0  0  0  0  0  0
    8.6320   46.6510   46.9060 C   0  0  2  0  0  0  0  0  0  0  0  0
    9.3500   45.3180   46.6650 C   0  0  1  0  0  0  0  0  0  0  0  0
    9.5040   44.5080   47.9530 C   0  0  2  0  0  0  0  0  0  0  0  0
   10.1640   45.3990   48.9770 C   0  0  1  0  0  0  0  0  0  0  0  0
    9.2220   46.5540   49.2640 C   0  0  2  0  0  0  0  0  0  0  0  0
    9.1030   47.3460   48.0840 O   0  0  0  0  0  0  0  0  0  0  0  0
    8.9740   47.5810   45.7910 C   0  0  0  0  0  0  0  0  0  0  0  0
    7.6210   49.3060   44.6370 C   0  0  0  0  0  0  0  0  0  0  0  0
    7.6180   50.7150   44.6380 C   0  0  0  0  0  0  0  0  0  0  0  0
    7.4240   51.4670   43.4580 C   0  0  0  0  0  0  0  0  0  0  0  0
    7.2330   50.7860   42.2760 C   0  0  0  0  0  0  0  0  0  0  0  0
    7.0410   51.5830   40.9960 C   0  0  0  0  0  0  0  0  0  0  0  0
    7.2460   49.4020   42.2360 C   0  0  0  0  0  0  0  0  0  0  0  0
    7.4410   48.6690   43.4120 C   0  0  0  0  0  0  0  0  0  0  0  0
   10.3550   43.3430   47.6650 O   0  0  0  0  0  0  0  0  0  0  0  0
   11.1110   43.6710   47.1400 H   0  0  0  0  0  0  0  0  0  0  0  0
    8.5970   44.5630   45.6640 O   0  0  0  0  0  0  0  0  0  0  0  0
    9.2630   44.0280   45.1400 H   0  0  0  0  0  0  0  0  0  0  0  0
   10.5120   44.6840   50.1880 O   0  0  0  0  0  0  0  0  0  0  0  0
    9.8450   44.8600   50.8760 H   0  0  0  0  0  0  0  0  0  0  0  0
    9.8250   47.5130   50.2690 C   0  0  0  0  0  0  0  0  0  0  0  0
   11.2580   47.6110   49.9770 O   0  0  0  0  0  0  0  0  0  0  0  0
   11.7140   47.5390   50.8460 H   0  0  0  0  0  0  0  0  0  0  0  0
  1 12  1  6  0  0  0
  1  2  1  0  0  0  0
  2  3  1  0  0  0  0
  2  4  1  0  0  0  0
  5 11  1  6  0  0  0
  5  4  1  0  0  0  0
  5 10  1  0  0  0  0
  6  5  1  1  0  0  0
  6  7  1  0  0  0  0
  7 19  1  6  0  0  0
  7  8  1  0  0  0  0
  8  9  1  0  0  0  0
  8 23  1  1  0  0  0
  9 25  1  1  0  0  0
 10  9  1  0  0  0  0
 11  1  1  0  0  0  0
 12 13  1  0  0  0  0
 14 13  2  0  0  0  0
 15 14  1  0  0  0  0
 16 15  1  0  0  0  0
 17 15  2  0  0  0  0
 17 18  1  0  0  0  0
 18 12  2  0  0  0  0
 20 19  1  0  0  0  0
 21  6  1  0  0  0  0
 22 21  1  0  0  0  0
 23 24  1  0  0  0  0
 26 25  1  0  0  0  0
 26 27  1  0  0  0  0
M  END
>  <minimizedAffinity>
-7.91903877

$$$$

 OpenBabel12271915003D

 27 29  0  0  1  0  0  0  0  0999 V2000
    9.0530   48.1400   45.7490 C   0  0  1  0  0  0  0  0  0  0  0  0
   10.0670   48.1550   44.7330 N   0  0  0  0  0  0  0  0  0  0  0  0
   11.0160   48.5520   45.0510 H   0  0  0  0  0  0  0  0  0  0  0  0
    9.6450   49.2420   43.7580 O   0  0  0  0  0  0  0  0  0  0  0  0
    8.2210   49.4350   44.0690 C   0  0  2  0  0  0  0  0  0  0  0  0
    7.3510   49.4350   42.8070 C   0  0  1  0  0  0  0  0  0  0  0  0
    7.3260   50.8040   42.1270 C   0  0  2  0  0  0  0  0  0  0  0  0
    6.9230   51.8230   43.1650 C   0  0  1  0  0  0  0  0  0  0  0  0
    8.0040   51.8520   44.2310 C   0  0  2  0  0  0  0  0  0  0  0  0
    8.0100   50.5960   44.9060 O   0  0  0  0  0  0  0  0  0  0  0  0
    7.7970   48.2970   44.9350 C   0  0  0  0  0  0  0  0  0  0  0  0
    9.1080   46.7920   46.4020 C   0  0  0  0  0  0  0  0  0  0  0  0
    9.0460   46.6480   47.8030 C   0  0  0  0  0  0  0  0  0  0  0  0
    9.1190   45.3860   48.4330 C   0  0  0  0  0  0  0  0  0  0  0  0
    9.2560   44.2690   47.6390 C   0  0  0  0  0  0  0  0  0  0  0  0
    9.3180   42.9040   48.3030 C   0  0  0  0  0  0  0  0  0  0  0  0
    9.3030   44.3720   46.2590 C   0  0  0  0  0  0  0  0  0  0  0  0
    9.2270   45.6280   45.6470 C   0  0  0  0  0  0  0  0  0  0  0  0
    6.3340   50.7620   41.0410 O   0  0  0  0  0  0  0  0  0  0  0  0
    5.5380   50.3250   41.4050 H   0  0  0  0  0  0  0  0  0  0  0  0
    7.8620   48.4130   41.8940 O   0  0  0  0  0  0  0  0  0  0  0  0
    7.0740   48.0470   41.3940 H   0  0  0  0  0  0  0  0  0  0  0  0
    6.7040   53.1370   42.5950 O   0  0  0  0  0  0  0  0  0  0  0  0
    7.4850   53.6980   42.7530 H   0  0  0  0  0  0  0  0  0  0  0  0
    7.6610   52.8370   45.3290 C   0  0  0  0  0  0  0  0  0  0  0  0
    8.4510   54.0490   45.0940 O   0  0  0  0  0  0  0  0  0  0  0  0
    8.8240   54.2990   45.9700 H   0  0  0  0  0  0  0  0  0  0  0  0
  1 12  1  6  0  0  0
  2  3  1  0  0  0  0
  2  1  1  0  0  0  0
  4  5  1  0  0  0  0
  4  2  1  0  0  0  0
  5 10  1  0  0  0  0
  5 11  1  1  0  0  0
  6  5  1  1  0  0  0
  7 19  1  6  0  0  0
  7  6  1  0  0  0  0
  7  8  1  0  0  0  0
  8 23  1  6  0  0  0
  8  9  1  0  0  0  0
  9 10  1  0  0  0  0
  9 25  1  1  0  0  0
 11  1  1  0  0  0  0
 12 13  2  0  0  0  0
 13 14  1  0  0  0  0
 15 16  1  0  0  0  0
 15 14  2  0  0  0  0
 17 15  1  0  0  0  0
 18 17  2  0  0  0  0
 18 12  1  0  0  0  0
 19 20  1  0  0  0  0
 21  6  1  0  0  0  0
 22 21  1  0  0  0  0
 23 24  1  0  0  0  0
 26 25  1  0  0  0  0
 26 27  1  0  0  0  0
M  END
>  <minimizedAffinity>
-7.82376289

$$$$

 OpenBabel12271915003D

 27 29  0  0  1  0  0  0  0  0999 V2000
    8.6520   48.6780   43.7750 C   0  0  1  0  0  0  0  0  0  0  0  0
    9.9290   48.8520   44.4090 N   0  0  0  0  0  0  0  0  0  0  0  0
   10.7710   48.8180   43.7390 H   0  0  0  0  0  0  0  0  0  0  0  0
   10.1670   47.5720   45.1910 O   0  0  0  0  0  0  0  0  0  0  0  0
    8.8240   46.9820   45.2870 C   0  0  2  0  0  0  0  0  0  0  0  0
    8.4860   46.5450   46.7170 C   0  0  1  0  0  0  0  0  0  0  0  0
    9.0500   45.1620   47.0430 C   0  0  2  0  0  0  0  0  0  0  0  0
    8.5780   44.2110   45.9700 C   0  0  1  0  0  0  0  0  0  0  0  0
    9.1830   44.6610   44.6520 C   0  0  2  0  0  0  0  0  0  0  0  0
    8.6320   45.9310   44.3100 O   0  0  0  0  0  0  0  0  0  0  0  0
    7.8480   48.0300   44.8690 C   0  0  0  0  0  0  0  0  0  0  0  0
    8.1300   50.0470   43.4600 C   0  0  0  0  0  0  0  0  0  0  0  0
    7.4870   50.3280   42.2380 C   0  0  0  0  0  0  0  0  0  0  0  0
    7.0100   51.6190   41.9180 C   0  0  0  0  0  0  0  0  0  0  0  0
    7.1870   52.6250   42.8410 C   0  0  0  0  0  0  0  0  0  0  0  0
    6.6630   54.0140   42.5170 C   0  0  0  0  0  0  0  0  0  0  0  0
    7.7990   52.3810   44.0590 C   0  0  0  0  0  0  0  0  0  0  0  0
    8.2660   51.0970   44.3640 C   0  0  0  0  0  0  0  0  0  0  0  0
    8.5290   44.7490   48.3560 O   0  0  0  0  0  0  0  0  0  0  0  0
    7.5740   44.9570   48.3560 H   0  0  0  0  0  0  0  0  0  0  0  0
    9.0100   47.5500   47.6410 O   0  0  0  0  0  0  0  0  0  0  0  0
    8.3850   47.5800   48.4240 H   0  0  0  0  0  0  0  0  0  0  0  0
    8.9150   42.8330   46.2650 O   0  0  0  0  0  0  0  0  0  0  0  0
    9.7040   42.5720   45.7570 H   0  0  0  0  0  0  0  0  0  0  0  0
    8.7340   43.7680   43.5130 C   0  0  0  0  0  0  0  0  0  0  0  0
    7.3550   43.3580   43.7940 O   0  0  0  0  0  0  0  0  0  0  0  0
    7.3230   42.3910   43.6170 H   0  0  0  0  0  0  0  0  0  0  0  0
  1 12  1  1  0  0  0
  1  2  1  0  0  0  0
  1 11  1  0  0  0  0
  2  4  1  0  0  0  0
  3  2  1  0  0  0  0
  4  5  1  0  0  0  0
  5 11  1  6  0  0  0
  6  5  1  6  0  0  0
  6  7  1  0  0  0  0
  6 21  1  0  0  0  0
  7 19  1  1  0  0  0
  8 23  1  1  0  0  0
  8  7  1  0  0  0  0
  9 25  1  6  0  0  0
  9  8  1  0  0  0  0
 10  9  1  0  0  0  0
 10  5  1  0  0  0  0
 12 18  2  0  0  0  0
 13 12  1  0  0  0  0
 14 13  2  0  0  0  0
 14 15  1  0  0  0  0
 15 17  2  0  0  0  0
 16 15  1  0  0  0  0
 17 18  1  0  0  0  0
 20 19  1  0  0  0  0
 21 22  1  0  0  0  0
 24 23  1  0  0  0  0
 25 26  1  0  0  0  0
 27 26  1  0  0  0  0
M  END
>  <minimizedAffinity>
-7.74916744

$$$$
