
 OpenBabel12271915063D

 42 46  0  0  1  0  0  0  0  0999 V2000
    8.0970   45.9940   40.5580 C   0  0  1  0  0  0  0  0  0  0  0  0
    8.3320   44.4360   40.1770 C   0  0  1  0  0  0  0  0  0  0  0  0
    7.9320   43.4560   41.3080 C   0  0  0  0  0  0  0  0  0  0  0  0
    8.7960   43.5790   42.4270 C   0  0  0  0  0  0  0  0  0  0  0  0
    8.5170   42.7700   43.5690 C   0  0  0  0  0  0  0  0  0  0  0  0
    9.2920   42.8380   44.7040 O   0  0  0  0  0  0  0  0  0  0  0  0
    8.6030   41.7300   45.3850 C   0  0  0  0  0  0  0  0  0  0  0  0
    7.3530   41.1950   44.7530 O   0  0  0  0  0  0  0  0  0  0  0  0
    7.4720   41.9210   43.5610 C   0  0  0  0  0  0  0  0  0  0  0  0
    6.6110   41.7860   42.4990 C   0  0  0  0  0  0  0  0  0  0  0  0
    6.8510   42.5590   41.3370 C   0  0  0  0  0  0  0  0  0  0  0  0
    5.8620   42.2770   40.2600 C   0  0  0  0  0  0  0  0  0  0  0  0
    6.5670   42.1640   38.9200 C   0  0  0  0  0  0  0  0  0  0  0  0
    6.6540   43.5690   38.3440 N   0  0  2  0  0  0  0  0  0  0  0  0
    5.8890   44.1190   38.6410 H   0  0  0  0  0  0  0  0  0  0  0  0
    6.7670   43.4670   36.7880 C   0  0  0  0  0  0  0  0  0  0  0  0
    8.2610   43.3880   36.5080 C   0  0  0  0  0  0  0  0  0  0  0  0
    8.9930   43.5430   37.8230 C   0  0  0  0  0  0  0  0  0  0  0  0
    7.9400   44.2700   38.6700 C   0  0  2  0  0  0  0  0  0  0  0  0
    7.8590   45.7040   38.1900 C   0  0  0  0  0  0  0  0  0  0  0  0
    7.9620   46.5750   39.2200 C   0  0  1  0  0  0  0  0  0  0  0  0
    7.8820   47.9350   39.0030 O   0  0  0  0  0  0  0  0  0  0  0  0
    6.9020   48.2470   38.0510 C   0  0  0  0  0  0  0  0  0  0  0  0
    6.9150   46.0950   41.2910 O   0  0  0  0  0  0  0  0  0  0  0  0
    6.7870   47.3730   41.8600 C   0  0  0  0  0  0  0  0  0  0  0  0
    6.0850   48.2740   41.4800 O   0  0  0  0  0  0  0  0  0  0  0  0
    7.6970   47.4680   43.1380 C   0  0  2  0  0  0  0  0  0  0  0  0
    9.1420   47.4360   42.8220 O   0  0  0  0  0  0  0  0  0  0  0  0
    9.5900   47.6960   43.6510 H   0  0  0  0  0  0  0  0  0  0  0  0
    7.3890   46.2620   44.0240 C   0  0  0  0  0  0  0  0  0  0  0  0
    8.1400   46.4140   45.3680 C   0  0  0  0  0  0  0  0  0  0  0  0
    7.5110   46.6600   46.4000 O   0  0  0  0  0  0  0  0  0  0  0  0
    9.4680   46.1970   45.2150 O   0  0  0  0  0  0  0  0  0  0  0  0
   10.2390   46.9660   46.1380 C   0  0  0  0  0  0  0  0  0  0  0  0
    7.5440   48.8550   43.7940 C   0  0  0  0  0  0  0  0  0  0  0  0
    8.2480   50.1390   43.3150 C   0  0  0  0  0  0  0  0  0  0  0  0
    7.3480   51.2820   42.8620 C   0  0  0  0  0  0  0  0  0  0  0  0
    7.3870   52.4770   43.8320 C   0  0  0  0  0  0  0  0  0  0  0  0
    6.0760   52.6020   44.5910 C   0  0  0  0  0  0  0  0  0  0  0  0
    7.7060   53.7590   43.0880 C   0  0  0  0  0  0  0  0  0  0  0  0
    8.4520   52.2330   44.7440 O   0  0  0  0  0  0  0  0  0  0  0  0
    8.2610   51.3970   45.1890 H   0  0  0  0  0  0  0  0  0  0  0  0
  1 24  1  1  0  0  0
  2 19  1  6  0  0  0
  2  1  1  0  0  0  0
  2  3  1  0  0  0  0
  3 11  1  0  0  0  0
  3  4  2  0  0  0  0
  4  5  1  0  0  0  0
  5  6  1  0  0  0  0
  6  7  1  0  0  0  0
  8  7  1  0  0  0  0
  9  5  2  0  0  0  0
  9  8  1  0  0  0  0
 10  9  1  0  0  0  0
 11 10  2  0  0  0  0
 12 11  1  0  0  0  0
 13 12  1  0  0  0  0
 14 15  1  0  0  0  0
 14 19  1  1  0  0  0
 14 13  1  0  0  0  0
 16 14  1  0  0  0  0
 17 16  1  0  0  0  0
 17 18  1  0  0  0  0
 19 18  1  6  0  0  0
 20 19  1  0  0  0  0
 20 21  1  0  0  0  0
 21 22  1  1  0  0  0
 21  1  1  0  0  0  0
 23 22  1  0  0  0  0
 24 25  1  0  0  0  0
 25 27  1  0  0  0  0
 26 25  2  0  0  0  0
 27 35  1  1  0  0  0
 27 30  1  0  0  0  0
 28 27  1  0  0  0  0
 28 29  1  0  0  0  0
 30 31  1  0  0  0  0
 31 32  2  0  0  0  0
 33 31  1  0  0  0  0
 33 34  1  0  0  0  0
 36 35  1  0  0  0  0
 37 36  1  0  0  0  0
 37 38  1  0  0  0  0
 38 39  1  0  0  0  0
 38 41  1  0  0  0  0
 40 38  1  0  0  0  0
 41 42  1  0  0  0  0
M  END
>  <minimizedAffinity>
-8.29375839

$$$$

 OpenBabel12271915063D

 42 46  0  0  1  0  0  0  0  0999 V2000
    9.1420   43.4170   44.4300 C   0  0  1  0  0  0  0  0  0  0  0  0
    9.2440   45.0330   44.3420 C   0  0  1  0  0  0  0  0  0  0  0  0
    8.5800   45.6260   43.0740 C   0  0  0  0  0  0  0  0  0  0  0  0
    9.2900   45.2600   41.9010 C   0  0  0  0  0  0  0  0  0  0  0  0
    8.7640   45.6950   40.6480 C   0  0  0  0  0  0  0  0  0  0  0  0
    9.3770   45.3720   39.4600 O   0  0  0  0  0  0  0  0  0  0  0  0
    8.4760   46.1910   38.6330 C   0  0  0  0  0  0  0  0  0  0  0  0
    7.2710   46.7860   39.2990 O   0  0  0  0  0  0  0  0  0  0  0  0
    7.6370   46.4320   40.6030 C   0  0  0  0  0  0  0  0  0  0  0  0
    6.9220   46.7930   41.7190 C   0  0  0  0  0  0  0  0  0  0  0  0
    7.4080   46.3960   42.9880 C   0  0  0  0  0  0  0  0  0  0  0  0
    6.5510   46.8920   44.0990 C   0  0  0  0  0  0  0  0  0  0  0  0
    7.4160   47.4270   45.2270 C   0  0  0  0  0  0  0  0  0  0  0  0
    7.7450   46.2500   46.1310 N   0  0  2  0  0  0  0  0  0  0  0  0
    7.0160   45.5820   46.1200 H   0  0  0  0  0  0  0  0  0  0  0  0
    8.0580   46.7890   47.5640 C   0  0  0  0  0  0  0  0  0  0  0  0
    9.5580   47.0550   47.5630 C   0  0  0  0  0  0  0  0  0  0  0  0
   10.1140   46.5950   46.2340 C   0  0  0  0  0  0  0  0  0  0  0  0
    9.0460   45.5840   45.7950 C   0  0  2  0  0  0  0  0  0  0  0  0
    9.2010   44.3380   46.6430 C   0  0  0  0  0  0  0  0  0  0  0  0
    9.2620   43.2250   45.8770 C   0  0  1  0  0  0  0  0  0  0  0  0
    9.3720   41.9770   46.4560 O   0  0  0  0  0  0  0  0  0  0  0  0
    9.9630   42.0490   47.7250 C   0  0  0  0  0  0  0  0  0  0  0  0
    7.8910   43.0280   43.9550 O   0  0  0  0  0  0  0  0  0  0  0  0
    7.9990   41.8980   43.1270 C   0  0  0  0  0  0  0  0  0  0  0  0
    9.0060   41.4170   42.6780 O   0  0  0  0  0  0  0  0  0  0  0  0
    6.5690   41.2940   42.8790 C   0  0  2  0  0  0  0  0  0  0  0  0
    5.6000   41.6500   43.9400 O   0  0  0  0  0  0  0  0  0  0  0  0
    4.7270   41.3950   43.5830 H   0  0  0  0  0  0  0  0  0  0  0  0
    6.6980   39.7720   42.8600 C   0  0  0  0  0  0  0  0  0  0  0  0
    5.8570   39.1760   44.0120 C   0  0  0  0  0  0  0  0  0  0  0  0
    4.6710   38.8890   43.8230 O   0  0  0  0  0  0  0  0  0  0  0  0
    6.6030   39.0020   45.1280 O   0  0  0  0  0  0  0  0  0  0  0  0
    7.8910   38.4650   44.8240 C   0  0  0  0  0  0  0  0  0  0  0  0
    5.9310   41.9420   41.6340 C   0  0  0  0  0  0  0  0  0  0  0  0
    6.6400   42.9360   40.6960 C   0  0  0  0  0  0  0  0  0  0  0  0
    6.6550   42.5850   39.2130 C   0  0  0  0  0  0  0  0  0  0  0  0
    8.0030   41.9930   38.7660 C   0  0  0  0  0  0  0  0  0  0  0  0
    8.4510   42.5990   37.4460 C   0  0  0  0  0  0  0  0  0  0  0  0
    7.9160   40.4810   38.6670 C   0  0  0  0  0  0  0  0  0  0  0  0
    8.9480   42.3020   39.7850 O   0  0  0  0  0  0  0  0  0  0  0  0
    8.9720   43.2650   39.8680 H   0  0  0  0  0  0  0  0  0  0  0  0
  1 24  1  1  0  0  0
  1 21  1  0  0  0  0
  2  1  1  0  0  0  0
  2 19  1  1  0  0  0
  3  2  1  0  0  0  0
  4  3  2  0  0  0  0
  5  4  1  0  0  0  0
  6  5  1  0  0  0  0
  7  8  1  0  0  0  0
  7  6  1  0  0  0  0
  8  9  1  0  0  0  0
  9  5  2  0  0  0  0
  9 10  1  0  0  0  0
 10 11  2  0  0  0  0
 11  3  1  0  0  0  0
 11 12  1  0  0  0  0
 12 13  1  0  0  0  0
 13 14  1  0  0  0  0
 14 19  1  6  0  0  0
 14 16  1  0  0  0  0
 15 14  1  0  0  0  0
 17 16  1  0  0  0  0
 18 17  1  0  0  0  0
 19 18  1  1  0  0  0
 19 20  1  0  0  0  0
 21 22  1  1  0  0  0
 21 20  1  0  0  0  0
 22 23  1  0  0  0  0
 25 24  1  0  0  0  0
 26 25  2  0  0  0  0
 27 35  1  6  0  0  0
 27 25  1  0  0  0  0
 27 28  1  0  0  0  0
 29 28  1  0  0  0  0
 30 27  1  0  0  0  0
 30 31  1  0  0  0  0
 31 33  1  0  0  0  0
 32 31  2  0  0  0  0
 34 33  1  0  0  0  0
 36 35  1  0  0  0  0
 37 36  1  0  0  0  0
 38 37  1  0  0  0  0
 38 41  1  0  0  0  0
 39 38  1  0  0  0  0
 40 38  1  0  0  0  0
 41 42  1  0  0  0  0
M  END
>  <minimizedAffinity>
-8.10672092

$$$$

 OpenBabel12271915063D

 42 46  0  0  1  0  0  0  0  0999 V2000
   10.8230   45.2550   52.6270 C   0  0  1  0  0  0  0  0  0  0  0  0
   10.1710   46.7060   52.3170 C   0  0  1  0  0  0  0  0  0  0  0  0
    9.6790   46.8630   50.8570 C   0  0  0  0  0  0  0  0  0  0  0  0
   10.7650   46.8700   49.9440 C   0  0  0  0  0  0  0  0  0  0  0  0
   10.4590   46.9580   48.5530 C   0  0  0  0  0  0  0  0  0  0  0  0
   11.4490   46.9540   47.5980 O   0  0  0  0  0  0  0  0  0  0  0  0
   10.5310   47.2000   46.4740 C   0  0  0  0  0  0  0  0  0  0  0  0
    9.0590   47.1360   46.7520 O   0  0  0  0  0  0  0  0  0  0  0  0
    9.1790   47.0400   48.1440 C   0  0  0  0  0  0  0  0  0  0  0  0
    8.1050   47.0250   49.0010 C   0  0  0  0  0  0  0  0  0  0  0  0
    8.3560   46.9500   50.3920 C   0  0  0  0  0  0  0  0  0  0  0  0
    7.1000   46.9820   51.1920 C   0  0  0  0  0  0  0  0  0  0  0  0
    7.2680   47.9000   52.3900 C   0  0  0  0  0  0  0  0  0  0  0  0
    7.8540   47.0620   53.5150 N   0  0  2  0  0  0  0  0  0  0  0  0
    7.5590   46.1210   53.4420 H   0  0  0  0  0  0  0  0  0  0  0  0
    7.4730   47.7180   54.8810 C   0  0  0  0  0  0  0  0  0  0  0  0
    8.6070   48.6910   55.1770 C   0  0  0  0  0  0  0  0  0  0  0  0
    9.6510   48.5360   54.0940 C   0  0  0  0  0  0  0  0  0  0  0  0
    9.3510   47.1200   53.5870 C   0  0  2  0  0  0  0  0  0  0  0  0
    9.8370   46.1340   54.6290 C   0  0  0  0  0  0  0  0  0  0  0  0
   10.6210   45.1800   54.0770 C   0  0  1  0  0  0  0  0  0  0  0  0
   11.1440   44.1640   54.8500 O   0  0  0  0  0  0  0  0  0  0  0  0
   12.5460   44.1620   54.8170 C   0  0  0  0  0  0  0  0  0  0  0  0
   10.0850   44.2860   51.9490 O   0  0  0  0  0  0  0  0  0  0  0  0
   10.9340   43.3480   51.3370 C   0  0  0  0  0  0  0  0  0  0  0  0
   12.0650   43.0790   51.6450 O   0  0  0  0  0  0  0  0  0  0  0  0
   10.1660   42.6380   50.1630 C   0  0  2  0  0  0  0  0  0  0  0  0
    9.0360   43.4400   49.6440 O   0  0  0  0  0  0  0  0  0  0  0  0
    8.7710   43.0000   48.8130 H   0  0  0  0  0  0  0  0  0  0  0  0
    9.5960   41.3260   50.6990 C   0  0  0  0  0  0  0  0  0  0  0  0
    8.0520   41.4050   50.7010 C   0  0  0  0  0  0  0  0  0  0  0  0
    7.4650   41.9610   51.6330 O   0  0  0  0  0  0  0  0  0  0  0  0
    7.5300   40.8530   49.5800 O   0  0  0  0  0  0  0  0  0  0  0  0
    7.8330   39.4610   49.4850 C   0  0  0  0  0  0  0  0  0  0  0  0
   11.0770   42.5320   48.9240 C   0  0  0  0  0  0  0  0  0  0  0  0
   11.7590   41.2390   48.4390 C   0  0  0  0  0  0  0  0  0  0  0  0
   13.1670   40.9730   48.9590 C   0  0  0  0  0  0  0  0  0  0  0  0
   13.6440   39.5430   48.6480 C   0  0  0  0  0  0  0  0  0  0  0  0
   13.4190   38.6250   49.8390 C   0  0  0  0  0  0  0  0  0  0  0  0
   15.1040   39.5450   48.2350 C   0  0  0  0  0  0  0  0  0  0  0  0
   12.8840   39.0870   47.5350 O   0  0  0  0  0  0  0  0  0  0  0  0
   11.9530   39.1220   47.7930 H   0  0  0  0  0  0  0  0  0  0  0  0
  1 24  1  6  0  0  0
  1 21  1  0  0  0  0
  2  1  1  0  0  0  0
  2 19  1  1  0  0  0
  3  2  1  0  0  0  0
  4  3  2  0  0  0  0
  5  4  1  0  0  0  0
  6  5  1  0  0  0  0
  7  8  1  0  0  0  0
  7  6  1  0  0  0  0
  8  9  1  0  0  0  0
  9  5  2  0  0  0  0
  9 10  1  0  0  0  0
 10 11  2  0  0  0  0
 11  3  1  0  0  0  0
 11 12  1  0  0  0  0
 12 13  1  0  0  0  0
 13 14  1  0  0  0  0
 14 19  1  6  0  0  0
 14 16  1  0  0  0  0
 15 14  1  0  0  0  0
 16 17  1  0  0  0  0
 18 17  1  0  0  0  0
 19 18  1  1  0  0  0
 19 20  1  0  0  0  0
 21 20  1  0  0  0  0
 21 22  1  6  0  0  0
 23 22  1  0  0  0  0
 25 26  2  0  0  0  0
 25 24  1  0  0  0  0
 27 35  1  6  0  0  0
 27 30  1  0  0  0  0
 27 25  1  0  0  0  0
 28 27  1  0  0  0  0
 29 28  1  0  0  0  0
 30 31  1  0  0  0  0
 31 32  2  0  0  0  0
 33 31  1  0  0  0  0
 34 33  1  0  0  0  0
 36 35  1  0  0  0  0
 36 37  1  0  0  0  0
 38 37  1  0  0  0  0
 38 39  1  0  0  0  0
 40 38  1  0  0  0  0
 41 42  1  0  0  0  0
 41 38  1  0  0  0  0
M  END
>  <minimizedAffinity>
-8.0891819

$$$$

 OpenBabel12271915063D

 42 46  0  0  1  0  0  0  0  0999 V2000
    8.5530   44.6740   41.9650 C   0  0  1  0  0  0  0  0  0  0  0  0
    8.4630   43.1750   41.3540 C   0  0  1  0  0  0  0  0  0  0  0  0
    8.0420   42.1080   42.3940 C   0  0  0  0  0  0  0  0  0  0  0  0
    9.0460   41.9220   43.3800 C   0  0  0  0  0  0  0  0  0  0  0  0
    8.7750   41.0020   44.4350 C   0  0  0  0  0  0  0  0  0  0  0  0
    9.6840   40.7730   45.4410 O   0  0  0  0  0  0  0  0  0  0  0  0
    8.9030   39.6950   46.0670 C   0  0  0  0  0  0  0  0  0  0  0  0
    7.5090   39.4630   45.5620 O   0  0  0  0  0  0  0  0  0  0  0  0
    7.6040   40.3360   44.4710 C   0  0  0  0  0  0  0  0  0  0  0  0
    6.6080   40.5010   43.5390 C   0  0  0  0  0  0  0  0  0  0  0  0
    6.8330   41.3950   42.4650 C   0  0  0  0  0  0  0  0  0  0  0  0
    5.6840   41.4380   41.5200 C   0  0  0  0  0  0  0  0  0  0  0  0
    6.1860   41.4240   40.0860 C   0  0  0  0  0  0  0  0  0  0  0  0
    6.4450   42.8700   39.6910 N   0  0  2  0  0  0  0  0  0  0  0  0
    5.8310   43.4800   40.1680 H   0  0  0  0  0  0  0  0  0  0  0  0
    6.3440   42.9910   38.1370 C   0  0  0  0  0  0  0  0  0  0  0  0
    7.7550   42.7250   37.6310 C   0  0  0  0  0  0  0  0  0  0  0  0
    8.6600   42.5610   38.8320 C   0  0  0  0  0  0  0  0  0  0  0  0
    7.8640   43.3050   39.9120 C   0  0  2  0  0  0  0  0  0  0  0  0
    7.9760   44.7910   39.6410 C   0  0  0  0  0  0  0  0  0  0  0  0
    8.3570   45.4670   40.7490 C   0  0  1  0  0  0  0  0  0  0  0  0
    8.4890   46.8400   40.7250 O   0  0  0  0  0  0  0  0  0  0  0  0
    7.7160   47.4140   39.7070 C   0  0  0  0  0  0  0  0  0  0  0  0
    7.5070   44.8430   42.8710 O   0  0  0  0  0  0  0  0  0  0  0  0
    7.9640   45.4480   44.0550 C   0  0  0  0  0  0  0  0  0  0  0  0
    8.7160   44.9800   44.8690 O   0  0  0  0  0  0  0  0  0  0  0  0
    7.3640   46.8970   44.1650 C   0  0  2  0  0  0  0  0  0  0  0  0
    6.3740   47.1940   43.1070 O   0  0  0  0  0  0  0  0  0  0  0  0
    5.9380   48.0210   43.3900 H   0  0  0  0  0  0  0  0  0  0  0  0
    8.5130   47.8930   44.0190 C   0  0  0  0  0  0  0  0  0  0  0  0
    7.9330   49.3020   43.7540 C   0  0  0  0  0  0  0  0  0  0  0  0
    7.8220   50.1070   44.6840 O   0  0  0  0  0  0  0  0  0  0  0  0
    7.6500   49.4790   42.4420 O   0  0  0  0  0  0  0  0  0  0  0  0
    7.1240   50.7810   42.1840 C   0  0  0  0  0  0  0  0  0  0  0  0
    6.5110   47.0200   45.4430 C   0  0  0  0  0  0  0  0  0  0  0  0
    6.9740   47.6890   46.7510 C   0  0  0  0  0  0  0  0  0  0  0  0
    6.9610   46.8220   48.0040 C   0  0  0  0  0  0  0  0  0  0  0  0
    8.3410   46.2100   48.3050 C   0  0  0  0  0  0  0  0  0  0  0  0
    8.5460   46.0440   49.8030 C   0  0  0  0  0  0  0  0  0  0  0  0
    9.4440   47.0550   47.6970 C   0  0  0  0  0  0  0  0  0  0  0  0
    8.3760   44.9370   47.6690 O   0  0  0  0  0  0  0  0  0  0  0  0
    7.6480   44.4160   48.0350 H   0  0  0  0  0  0  0  0  0  0  0  0
  1 24  1  1  0  0  0
  2 19  1  6  0  0  0
  2  1  1  0  0  0  0
  2  3  1  0  0  0  0
  3 11  1  0  0  0  0
  3  4  2  0  0  0  0
  4  5  1  0  0  0  0
  5  9  2  0  0  0  0
  5  6  1  0  0  0  0
  6  7  1  0  0  0  0
  8  7  1  0  0  0  0
  9  8  1  0  0  0  0
 10  9  1  0  0  0  0
 11 10  2  0  0  0  0
 12 11  1  0  0  0  0
 13 12  1  0  0  0  0
 14 19  1  1  0  0  0
 14 13  1  0  0  0  0
 14 15  1  0  0  0  0
 16 14  1  0  0  0  0
 17 16  1  0  0  0  0
 17 18  1  0  0  0  0
 19 18  1  6  0  0  0
 20 19  1  0  0  0  0
 20 21  1  0  0  0  0
 21 22  1  1  0  0  0
 21  1  1  0  0  0  0
 23 22  1  0  0  0  0
 24 25  1  0  0  0  0
 25 27  1  0  0  0  0
 25 26  2  0  0  0  0
 27 30  1  6  0  0  0
 27 35  1  0  0  0  0
 28 29  1  0  0  0  0
 28 27  1  0  0  0  0
 31 30  1  0  0  0  0
 31 32  2  0  0  0  0
 33 31  1  0  0  0  0
 34 33  1  0  0  0  0
 35 36  1  0  0  0  0
 36 37  1  0  0  0  0
 37 38  1  0  0  0  0
 38 39  1  0  0  0  0
 40 38  1  0  0  0  0
 41 42  1  0  0  0  0
 41 38  1  0  0  0  0
M  END
>  <minimizedAffinity>
-8.03534222

$$$$

 OpenBabel12271915063D

 42 46  0  0  1  0  0  0  0  0999 V2000
    8.4850   42.9940   42.4830 C   0  0  1  0  0  0  0  0  0  0  0  0
    7.7350   41.6000   42.1340 C   0  0  1  0  0  0  0  0  0  0  0  0
    7.0570   40.9390   43.3590 C   0  0  0  0  0  0  0  0  0  0  0  0
    8.0190   40.4840   44.2990 C   0  0  0  0  0  0  0  0  0  0  0  0
    7.5380   39.8970   45.5060 C   0  0  0  0  0  0  0  0  0  0  0  0
    8.3990   39.4450   46.4790 O   0  0  0  0  0  0  0  0  0  0  0  0
    7.3380   38.8690   47.3200 C   0  0  0  0  0  0  0  0  0  0  0  0
    5.9160   39.1670   46.9470 O   0  0  0  0  0  0  0  0  0  0  0  0
    6.2140   39.7790   45.7230 C   0  0  0  0  0  0  0  0  0  0  0  0
    5.2580   40.2180   44.8390 C   0  0  0  0  0  0  0  0  0  0  0  0
    5.6840   40.7990   43.6200 C   0  0  0  0  0  0  0  0  0  0  0  0
    4.5390   41.1890   42.7530 C   0  0  0  0  0  0  0  0  0  0  0  0
    4.8150   40.7900   41.3140 C   0  0  0  0  0  0  0  0  0  0  0  0
    5.5740   41.9400   40.6710 N   0  0  2  0  0  0  0  0  0  0  0  0
    5.3140   42.8030   41.0770 H   0  0  0  0  0  0  0  0  0  0  0  0
    5.3390   41.8950   39.1260 C   0  0  0  0  0  0  0  0  0  0  0  0
    6.4560   41.0130   38.5860 C   0  0  0  0  0  0  0  0  0  0  0  0
    7.3630   40.6460   39.7400 C   0  0  0  0  0  0  0  0  0  0  0  0
    7.0640   41.7800   40.7300 C   0  0  2  0  0  0  0  0  0  0  0  0
    7.7200   43.0430   40.2100 C   0  0  0  0  0  0  0  0  0  0  0  0
    8.4700   43.6380   41.1660 C   0  0  1  0  0  0  0  0  0  0  0  0
    9.1300   44.8210   40.9080 O   0  0  0  0  0  0  0  0  0  0  0  0
    8.6290   45.4500   39.7600 C   0  0  0  0  0  0  0  0  0  0  0  0
    7.7110   43.6900   43.4100 O   0  0  0  0  0  0  0  0  0  0  0  0
    8.5130   44.2160   44.4360 C   0  0  0  0  0  0  0  0  0  0  0  0
    9.1390   43.6030   45.2610 O   0  0  0  0  0  0  0  0  0  0  0  0
    8.5170   45.7860   44.3420 C   0  0  2  0  0  0  0  0  0  0  0  0
    9.6550   46.3150   43.5580 O   0  0  0  0  0  0  0  0  0  0  0  0
    9.4430   47.2570   43.4060 H   0  0  0  0  0  0  0  0  0  0  0  0
    8.6310   46.3420   45.7600 C   0  0  0  0  0  0  0  0  0  0  0  0
   10.0460   46.9320   45.9630 C   0  0  0  0  0  0  0  0  0  0  0  0
   10.3080   48.0600   45.5360 O   0  0  0  0  0  0  0  0  0  0  0  0
   10.8350   46.0860   46.6650 O   0  0  0  0  0  0  0  0  0  0  0  0
   10.2620   45.7530   47.9290 C   0  0  0  0  0  0  0  0  0  0  0  0
    7.3080   46.2670   43.5140 C   0  0  0  0  0  0  0  0  0  0  0  0
    6.5910   47.6170   43.7030 C   0  0  0  0  0  0  0  0  0  0  0  0
    6.9910   48.7420   42.7560 C   0  0  0  0  0  0  0  0  0  0  0  0
    7.8940   49.7860   43.4370 C   0  0  0  0  0  0  0  0  0  0  0  0
    7.5660   49.9040   44.9170 C   0  0  0  0  0  0  0  0  0  0  0  0
    7.7700   51.1310   42.7460 C   0  0  0  0  0  0  0  0  0  0  0  0
    9.2360   49.3420   43.2730 O   0  0  0  0  0  0  0  0  0  0  0  0
    9.2990   48.4680   43.6840 H   0  0  0  0  0  0  0  0  0  0  0  0
  1 24  1  1  0  0  0
  2 19  1  6  0  0  0
  2  1  1  0  0  0  0
  2  3  1  0  0  0  0
  3 11  1  0  0  0  0
  3  4  2  0  0  0  0
  4  5  1  0  0  0  0
  5  9  2  0  0  0  0
  5  6  1  0  0  0  0
  6  7  1  0  0  0  0
  8  7  1  0  0  0  0
  9  8  1  0  0  0  0
 10  9  1  0  0  0  0
 11 10  2  0  0  0  0
 12 11  1  0  0  0  0
 13 12  1  0  0  0  0
 14 19  1  1  0  0  0
 14 15  1  0  0  0  0
 14 13  1  0  0  0  0
 16 14  1  0  0  0  0
 17 16  1  0  0  0  0
 17 18  1  0  0  0  0
 19 18  1  6  0  0  0
 20 19  1  0  0  0  0
 20 21  1  0  0  0  0
 21 22  1  1  0  0  0
 21  1  1  0  0  0  0
 23 22  1  0  0  0  0
 24 25  1  0  0  0  0
 25 26  2  0  0  0  0
 27 35  1  6  0  0  0
 27 25  1  0  0  0  0
 27 30  1  0  0  0  0
 28 27  1  0  0  0  0
 29 28  1  0  0  0  0
 30 31  1  0  0  0  0
 31 33  1  0  0  0  0
 32 31  2  0  0  0  0
 33 34  1  0  0  0  0
 35 36  1  0  0  0  0
 37 38  1  0  0  0  0
 37 36  1  0  0  0  0
 38 39  1  0  0  0  0
 40 38  1  0  0  0  0
 41 38  1  0  0  0  0
 41 42  1  0  0  0  0
M  END
>  <minimizedAffinity>
-7.90865946

$$$$

 OpenBabel12271915063D

 42 46  0  0  1  0  0  0  0  0999 V2000
   10.7810   45.4310   52.7230 C   0  0  1  0  0  0  0  0  0  0  0  0
   10.1760   46.8930   52.3710 C   0  0  1  0  0  0  0  0  0  0  0  0
    9.6880   47.0250   50.9070 C   0  0  0  0  0  0  0  0  0  0  0  0
   10.7740   46.9710   49.9940 C   0  0  0  0  0  0  0  0  0  0  0  0
   10.4690   47.0300   48.6020 C   0  0  0  0  0  0  0  0  0  0  0  0
   11.4580   46.9660   47.6470 O   0  0  0  0  0  0  0  0  0  0  0  0
   10.5480   47.2100   46.5160 C   0  0  0  0  0  0  0  0  0  0  0  0
    9.0750   47.2020   46.7960 O   0  0  0  0  0  0  0  0  0  0  0  0
    9.1920   47.1420   48.1900 C   0  0  0  0  0  0  0  0  0  0  0  0
    8.1190   47.1850   49.0470 C   0  0  0  0  0  0  0  0  0  0  0  0
    8.3690   47.1420   50.4400 C   0  0  0  0  0  0  0  0  0  0  0  0
    7.1160   47.2370   51.2380 C   0  0  0  0  0  0  0  0  0  0  0  0
    7.3140   48.1840   52.4090 C   0  0  0  0  0  0  0  0  0  0  0  0
    7.8730   47.3580   53.5580 N   0  0  2  0  0  0  0  0  0  0  0  0
    7.5480   46.4260   53.5120 H   0  0  0  0  0  0  0  0  0  0  0  0
    7.5150   48.0660   54.9050 C   0  0  0  0  0  0  0  0  0  0  0  0
    8.6800   49.0090   55.1730 C   0  0  0  0  0  0  0  0  0  0  0  0
    9.7180   48.7900   54.0950 C   0  0  0  0  0  0  0  0  0  0  0  0
    9.3710   47.3700   53.6280 C   0  0  2  0  0  0  0  0  0  0  0  0
    9.8260   46.3980   54.6980 C   0  0  0  0  0  0  0  0  0  0  0  0
   10.5780   45.4040   54.1730 C   0  0  1  0  0  0  0  0  0  0  0  0
   11.0680   44.3940   54.9750 O   0  0  0  0  0  0  0  0  0  0  0  0
   12.4440   44.2080   54.7840 C   0  0  0  0  0  0  0  0  0  0  0  0
   10.0110   44.4680   52.0720 O   0  0  0  0  0  0  0  0  0  0  0  0
   10.8290   43.5570   51.3820 C   0  0  0  0  0  0  0  0  0  0  0  0
   12.0060   43.3670   51.5430 O   0  0  0  0  0  0  0  0  0  0  0  0
    9.9580   42.7540   50.3480 C   0  0  2  0  0  0  0  0  0  0  0  0
    8.7770   43.5110   49.8780 O   0  0  0  0  0  0  0  0  0  0  0  0
    8.4380   43.0040   49.1140 H   0  0  0  0  0  0  0  0  0  0  0  0
    9.4530   41.4890   51.0400 C   0  0  0  0  0  0  0  0  0  0  0  0
    7.9270   41.6040   51.2600 C   0  0  0  0  0  0  0  0  0  0  0  0
    7.1490   41.0950   50.4480 O   0  0  0  0  0  0  0  0  0  0  0  0
    7.6430   42.2530   52.4130 O   0  0  0  0  0  0  0  0  0  0  0  0
    8.3580   41.7030   53.5200 C   0  0  0  0  0  0  0  0  0  0  0  0
   10.7470   42.5490   49.0400 C   0  0  0  0  0  0  0  0  0  0  0  0
   10.1730   41.9310   47.7510 C   0  0  0  0  0  0  0  0  0  0  0  0
   10.0810   40.4100   47.7040 C   0  0  0  0  0  0  0  0  0  0  0  0
    9.6760   39.8920   46.3120 C   0  0  0  0  0  0  0  0  0  0  0  0
    9.1290   41.0200   45.4520 C   0  0  0  0  0  0  0  0  0  0  0  0
    8.6670   38.7660   46.4350 C   0  0  0  0  0  0  0  0  0  0  0  0
   10.8500   39.3540   45.7140 O   0  0  0  0  0  0  0  0  0  0  0  0
   11.5010   40.0670   45.6720 H   0  0  0  0  0  0  0  0  0  0  0  0
  1 24  1  6  0  0  0
  1 21  1  0  0  0  0
  2  1  1  0  0  0  0
  2 19  1  1  0  0  0
  3  2  1  0  0  0  0
  4  3  2  0  0  0  0
  5  4  1  0  0  0  0
  6  5  1  0  0  0  0
  7  8  1  0  0  0  0
  7  6  1  0  0  0  0
  8  9  1  0  0  0  0
  9  5  2  0  0  0  0
  9 10  1  0  0  0  0
 10 11  2  0  0  0  0
 11  3  1  0  0  0  0
 11 12  1  0  0  0  0
 12 13  1  0  0  0  0
 13 14  1  0  0  0  0
 14 19  1  6  0  0  0
 14 16  1  0  0  0  0
 15 14  1  0  0  0  0
 16 17  1  0  0  0  0
 18 17  1  0  0  0  0
 19 18  1  1  0  0  0
 19 20  1  0  0  0  0
 21 20  1  0  0  0  0
 21 22  1  6  0  0  0
 23 22  1  0  0  0  0
 25 26  2  0  0  0  0
 25 24  1  0  0  0  0
 27 35  1  6  0  0  0
 27 30  1  0  0  0  0
 27 25  1  0  0  0  0
 28 27  1  0  0  0  0
 29 28  1  0  0  0  0
 30 31  1  0  0  0  0
 31 33  1  0  0  0  0
 32 31  2  0  0  0  0
 33 34  1  0  0  0  0
 36 35  1  0  0  0  0
 37 36  1  0  0  0  0
 38 40  1  0  0  0  0
 38 37  1  0  0  0  0
 39 38  1  0  0  0  0
 41 38  1  0  0  0  0
 42 41  1  0  0  0  0
M  END
>  <minimizedAffinity>
-7.88781595

$$$$

 OpenBabel12271915063D

 42 46  0  0  1  0  0  0  0  0999 V2000
    8.9640   43.5710   44.2220 C   0  0  1  0  0  0  0  0  0  0  0  0
    9.1370   45.1800   44.1250 C   0  0  1  0  0  0  0  0  0  0  0  0
    8.4670   45.7990   42.8730 C   0  0  0  0  0  0  0  0  0  0  0  0
    9.1270   45.3980   41.6820 C   0  0  0  0  0  0  0  0  0  0  0  0
    8.5870   45.8520   40.4430 C   0  0  0  0  0  0  0  0  0  0  0  0
    9.1530   45.4980   39.2400 O   0  0  0  0  0  0  0  0  0  0  0  0
    8.2680   46.3550   38.4340 C   0  0  0  0  0  0  0  0  0  0  0  0
    7.1110   47.0080   39.1300 O   0  0  0  0  0  0  0  0  0  0  0  0
    7.4960   46.6410   40.4260 C   0  0  0  0  0  0  0  0  0  0  0  0
    6.8280   47.0380   41.5590 C   0  0  0  0  0  0  0  0  0  0  0  0
    7.3310   46.6220   42.8160 C   0  0  0  0  0  0  0  0  0  0  0  0
    6.5270   47.1610   43.9480 C   0  0  0  0  0  0  0  0  0  0  0  0
    7.4470   47.6590   45.0490 C   0  0  0  0  0  0  0  0  0  0  0  0
    7.7460   46.4700   45.9490 N   0  0  2  0  0  0  0  0  0  0  0  0
    6.9870   45.8370   45.9610 H   0  0  0  0  0  0  0  0  0  0  0  0
    8.1230   46.9990   47.3710 C   0  0  0  0  0  0  0  0  0  0  0  0
    9.6330   47.1940   47.3280 C   0  0  0  0  0  0  0  0  0  0  0  0
   10.1300   46.7050   45.9860 C   0  0  0  0  0  0  0  0  0  0  0  0
    9.0060   45.7430   45.5810 C   0  0  2  0  0  0  0  0  0  0  0  0
    9.1250   44.4940   46.4300 C   0  0  0  0  0  0  0  0  0  0  0  0
    9.1140   43.3770   45.6670 C   0  0  1  0  0  0  0  0  0  0  0  0
    9.1820   42.1280   46.2480 O   0  0  0  0  0  0  0  0  0  0  0  0
    9.3400   42.2140   47.6380 C   0  0  0  0  0  0  0  0  0  0  0  0
    7.6830   43.2390   43.7840 O   0  0  0  0  0  0  0  0  0  0  0  0
    7.7050   42.0560   43.0260 C   0  0  0  0  0  0  0  0  0  0  0  0
    8.3960   41.8140   42.0710 O   0  0  0  0  0  0  0  0  0  0  0  0
    6.6860   41.0260   43.6370 C   0  0  2  0  0  0  0  0  0  0  0  0
    6.4540   41.2330   45.0840 O   0  0  0  0  0  0  0  0  0  0  0  0
    5.6770   40.6810   45.2990 H   0  0  0  0  0  0  0  0  0  0  0  0
    7.2670   39.6250   43.4550 C   0  0  0  0  0  0  0  0  0  0  0  0
    8.2870   39.3470   44.5840 C   0  0  0  0  0  0  0  0  0  0  0  0
    9.4860   39.5760   44.4000 O   0  0  0  0  0  0  0  0  0  0  0  0
    7.6710   38.9030   45.7040 O   0  0  0  0  0  0  0  0  0  0  0  0
    8.6090   38.5740   46.7290 C   0  0  0  0  0  0  0  0  0  0  0  0
    5.2800   41.2640   43.0520 C   0  0  0  0  0  0  0  0  0  0  0  0
    4.7390   40.6160   41.7640 C   0  0  0  0  0  0  0  0  0  0  0  0
    4.7510   41.4790   40.5070 C   0  0  0  0  0  0  0  0  0  0  0  0
    3.3660   41.5580   39.8400 C   0  0  0  0  0  0  0  0  0  0  0  0
    2.3010   41.9610   40.8480 C   0  0  0  0  0  0  0  0  0  0  0  0
    3.0150   40.2390   39.1790 C   0  0  0  0  0  0  0  0  0  0  0  0
    3.4570   42.5410   38.8140 O   0  0  0  0  0  0  0  0  0  0  0  0
    3.7160   43.3710   39.2370 H   0  0  0  0  0  0  0  0  0  0  0  0
  1 24  1  1  0  0  0
  1 21  1  0  0  0  0
  2  1  1  0  0  0  0
  2 19  1  1  0  0  0
  3  2  1  0  0  0  0
  4  3  2  0  0  0  0
  5  4  1  0  0  0  0
  6  5  1  0  0  0  0
  7  8  1  0  0  0  0
  7  6  1  0  0  0  0
  8  9  1  0  0  0  0
  9  5  2  0  0  0  0
  9 10  1  0  0  0  0
 10 11  2  0  0  0  0
 11  3  1  0  0  0  0
 11 12  1  0  0  0  0
 12 13  1  0  0  0  0
 13 14  1  0  0  0  0
 14 19  1  6  0  0  0
 14 15  1  0  0  0  0
 14 16  1  0  0  0  0
 17 16  1  0  0  0  0
 18 17  1  0  0  0  0
 19 18  1  1  0  0  0
 19 20  1  0  0  0  0
 21 22  1  1  0  0  0
 21 20  1  0  0  0  0
 22 23  1  0  0  0  0
 25 27  1  0  0  0  0
 25 24  1  0  0  0  0
 26 25  2  0  0  0  0
 27 35  1  6  0  0  0
 27 28  1  0  0  0  0
 28 29  1  0  0  0  0
 30 27  1  0  0  0  0
 30 31  1  0  0  0  0
 31 33  1  0  0  0  0
 32 31  2  0  0  0  0
 33 34  1  0  0  0  0
 36 35  1  0  0  0  0
 37 36  1  0  0  0  0
 38 37  1  0  0  0  0
 38 39  1  0  0  0  0
 40 38  1  0  0  0  0
 41 42  1  0  0  0  0
 41 38  1  0  0  0  0
M  END
>  <minimizedAffinity>
-7.71850824

$$$$

 OpenBabel12271915063D

 42 46  0  0  1  0  0  0  0  0999 V2000
    8.4710   43.0030   40.9470 C   0  0  1  0  0  0  0  0  0  0  0  0
    7.7440   41.5640   41.1240 C   0  0  1  0  0  0  0  0  0  0  0  0
    7.3970   41.2240   42.5950 C   0  0  0  0  0  0  0  0  0  0  0  0
    8.5700   41.0150   43.3660 C   0  0  0  0  0  0  0  0  0  0  0  0
    8.4050   40.7410   44.7570 C   0  0  0  0  0  0  0  0  0  0  0  0
    9.4870   40.5430   45.5830 O   0  0  0  0  0  0  0  0  0  0  0  0
    8.6770   40.1900   46.7590 C   0  0  0  0  0  0  0  0  0  0  0  0
    7.1920   40.3860   46.6650 O   0  0  0  0  0  0  0  0  0  0  0  0
    7.1720   40.6790   45.2950 C   0  0  0  0  0  0  0  0  0  0  0  0
    6.0190   40.8870   44.5790 C   0  0  0  0  0  0  0  0  0  0  0  0
    6.1280   41.1510   43.1920 C   0  0  0  0  0  0  0  0  0  0  0  0
    4.7970   41.3150   42.5450 C   0  0  0  0  0  0  0  0  0  0  0  0
    4.7660   40.5750   41.2190 C   0  0  0  0  0  0  0  0  0  0  0  0
    5.2940   41.5330   40.1630 N   0  0  2  0  0  0  0  0  0  0  0  0
    5.0820   42.4690   40.4000 H   0  0  0  0  0  0  0  0  0  0  0  0
    4.7220   41.1100   38.7710 C   0  0  0  0  0  0  0  0  0  0  0  0
    5.7390   40.1240   38.2130 C   0  0  0  0  0  0  0  0  0  0  0  0
    6.9000   40.0520   39.1800 C   0  0  0  0  0  0  0  0  0  0  0  0
    6.7660   41.3940   39.9120 C   0  0  2  0  0  0  0  0  0  0  0  0
    7.2150   42.4910   38.9690 C   0  0  0  0  0  0  0  0  0  0  0  0
    8.1240   43.3030   39.5550 C   0  0  1  0  0  0  0  0  0  0  0  0
    8.6410   44.3880   38.8770 O   0  0  0  0  0  0  0  0  0  0  0  0
    8.2380   44.3940   37.5340 C   0  0  0  0  0  0  0  0  0  0  0  0
    7.8850   43.9040   41.8350 O   0  0  0  0  0  0  0  0  0  0  0  0
    8.8510   44.7650   42.3820 C   0  0  0  0  0  0  0  0  0  0  0  0
    9.9860   44.4950   42.6760 O   0  0  0  0  0  0  0  0  0  0  0  0
    8.2390   46.2050   42.5350 C   0  0  2  0  0  0  0  0  0  0  0  0
    9.2560   47.2770   42.4620 O   0  0  0  0  0  0  0  0  0  0  0  0
    8.7470   48.1060   42.3700 H   0  0  0  0  0  0  0  0  0  0  0  0
    7.5720   46.2890   43.9070 C   0  0  0  0  0  0  0  0  0  0  0  0
    8.4130   47.2070   44.8240 C   0  0  0  0  0  0  0  0  0  0  0  0
    8.0740   48.3820   44.9970 O   0  0  0  0  0  0  0  0  0  0  0  0
    9.4470   46.5340   45.3800 O   0  0  0  0  0  0  0  0  0  0  0  0
   10.3340   47.4070   46.0770 C   0  0  0  0  0  0  0  0  0  0  0  0
    7.3460   46.5310   41.3210 C   0  0  0  0  0  0  0  0  0  0  0  0
    7.3870   47.8480   40.5230 C   0  0  0  0  0  0  0  0  0  0  0  0
    7.7440   47.7410   39.0450 C   0  0  0  0  0  0  0  0  0  0  0  0
    7.1040   48.8620   38.2070 C   0  0  0  0  0  0  0  0  0  0  0  0
    6.4410   49.8970   39.1020 C   0  0  0  0  0  0  0  0  0  0  0  0
    6.1100   48.2870   37.2160 C   0  0  0  0  0  0  0  0  0  0  0  0
    8.1530   49.4700   37.4600 O   0  0  0  0  0  0  0  0  0  0  0  0
    8.8000   49.8020   38.0970 H   0  0  0  0  0  0  0  0  0  0  0  0
  1  2  1  0  0  0  0
  1 24  1  1  0  0  0
  2 19  1  6  0  0  0
  2  3  1  0  0  0  0
  3 11  1  0  0  0  0
  3  4  2  0  0  0  0
  4  5  1  0  0  0  0
  5  9  2  0  0  0  0
  5  6  1  0  0  0  0
  6  7  1  0  0  0  0
  8  7  1  0  0  0  0
  9  8  1  0  0  0  0
 10  9  1  0  0  0  0
 11 10  2  0  0  0  0
 12 11  1  0  0  0  0
 13 12  1  0  0  0  0
 14 19  1  6  0  0  0
 14 15  1  0  0  0  0
 14 13  1  0  0  0  0
 16 14  1  0  0  0  0
 17 16  1  0  0  0  0
 17 18  1  0  0  0  0
 18 19  1  0  0  0  0
 19 20  1  6  0  0  0
 20 21  1  0  0  0  0
 21 22  1  1  0  0  0
 21  1  1  0  0  0  0
 23 22  1  0  0  0  0
 24 25  1  0  0  0  0
 25 27  1  0  0  0  0
 25 26  2  0  0  0  0
 27 35  1  6  0  0  0
 27 30  1  0  0  0  0
 28 27  1  0  0  0  0
 29 28  1  0  0  0  0
 30 31  1  0  0  0  0
 31 32  2  0  0  0  0
 31 33  1  0  0  0  0
 33 34  1  0  0  0  0
 36 35  1  0  0  0  0
 37 36  1  0  0  0  0
 38 37  1  0  0  0  0
 38 39  1  0  0  0  0
 40 38  1  0  0  0  0
 41 42  1  0  0  0  0
 41 38  1  0  0  0  0
M  END
>  <minimizedAffinity>
-7.69171762

$$$$

 OpenBabel12271915063D

 42 46  0  0  1  0  0  0  0  0999 V2000
    9.8470   42.2190   51.6410 C   0  0  1  0  0  0  0  0  0  0  0  0
    9.9880   40.9260   50.6730 C   0  0  1  0  0  0  0  0  0  0  0  0
    8.7800   40.7290   49.7240 C   0  0  0  0  0  0  0  0  0  0  0  0
    7.6080   40.3820   50.4460 C   0  0  0  0  0  0  0  0  0  0  0  0
    6.4000   40.2180   49.7040 C   0  0  0  0  0  0  0  0  0  0  0  0
    5.2140   39.8990   50.3240 O   0  0  0  0  0  0  0  0  0  0  0  0
    4.4600   39.7470   49.0700 C   0  0  0  0  0  0  0  0  0  0  0  0
    5.1350   40.1680   47.7980 O   0  0  0  0  0  0  0  0  0  0  0  0
    6.3960   40.3820   48.3670 C   0  0  0  0  0  0  0  0  0  0  0  0
    7.5100   40.7280   47.6420 C   0  0  0  0  0  0  0  0  0  0  0  0
    8.7370   40.8910   48.3300 C   0  0  0  0  0  0  0  0  0  0  0  0
    9.8580   41.2260   47.4080 C   0  0  0  0  0  0  0  0  0  0  0  0
   11.0940   40.4250   47.7780 C   0  0  0  0  0  0  0  0  0  0  0  0
   11.8440   41.2260   48.8310 N   0  0  2  0  0  0  0  0  0  0  0  0
   11.7010   42.1960   48.7030 H   0  0  0  0  0  0  0  0  0  0  0  0
   13.3520   40.8190   48.7910 C   0  0  0  0  0  0  0  0  0  0  0  0
   13.4700   39.6550   49.7640 C   0  0  0  0  0  0  0  0  0  0  0  0
   12.1220   39.4560   50.4220 C   0  0  0  0  0  0  0  0  0  0  0  0
   11.4900   40.8420   50.2370 C   0  0  2  0  0  0  0  0  0  0  0  0
   12.1660   41.7990   51.1980 C   0  0  0  0  0  0  0  0  0  0  0  0
   11.2580   42.4900   51.9250 C   0  0  1  0  0  0  0  0  0  0  0  0
   11.6640   43.4390   52.8410 O   0  0  0  0  0  0  0  0  0  0  0  0
   11.1070   43.2050   54.1060 C   0  0  0  0  0  0  0  0  0  0  0  0
    9.2550   43.2500   50.9130 O   0  0  0  0  0  0  0  0  0  0  0  0
    8.3170   43.9420   51.6980 C   0  0  0  0  0  0  0  0  0  0  0  0
    7.4100   43.4710   52.3340 O   0  0  0  0  0  0  0  0  0  0  0  0
    8.6430   45.4800   51.6660 C   0  0  2  0  0  0  0  0  0  0  0  0
   10.0740   45.7620   51.4200 O   0  0  0  0  0  0  0  0  0  0  0  0
   10.1150   46.7190   51.2270 H   0  0  0  0  0  0  0  0  0  0  0  0
    8.2810   46.0650   53.0300 C   0  0  0  0  0  0  0  0  0  0  0  0
    9.4270   46.9880   53.5060 C   0  0  0  0  0  0  0  0  0  0  0  0
   10.2940   46.5490   54.2680 O   0  0  0  0  0  0  0  0  0  0  0  0
    9.3330   48.2170   52.9480 O   0  0  0  0  0  0  0  0  0  0  0  0
    8.0670   48.8230   53.2100 C   0  0  0  0  0  0  0  0  0  0  0  0
    7.9730   46.1350   50.4420 C   0  0  0  0  0  0  0  0  0  0  0  0
    8.5850   47.2760   49.6070 C   0  0  0  0  0  0  0  0  0  0  0  0
    8.8290   46.9880   48.1310 C   0  0  0  0  0  0  0  0  0  0  0  0
   10.2690   46.5170   47.8580 C   0  0  0  0  0  0  0  0  0  0  0  0
   10.7690   47.0480   46.5240 C   0  0  0  0  0  0  0  0  0  0  0  0
   10.3540   45.0030   47.9040 C   0  0  0  0  0  0  0  0  0  0  0  0
   11.0770   47.0250   48.9140 O   0  0  0  0  0  0  0  0  0  0  0  0
   10.9900   47.9870   48.9010 H   0  0  0  0  0  0  0  0  0  0  0  0
  1 24  1  6  0  0  0
  1 21  1  0  0  0  0
  2 19  1  6  0  0  0
  2  1  1  0  0  0  0
  3  4  2  0  0  0  0
  3  2  1  0  0  0  0
  5  6  1  0  0  0  0
  5  4  1  0  0  0  0
  7  6  1  0  0  0  0
  8  9  1  0  0  0  0
  8  7  1  0  0  0  0
  9  5  2  0  0  0  0
 10 11  2  0  0  0  0
 10  9  1  0  0  0  0
 11  3  1  0  0  0  0
 12 13  1  0  0  0  0
 12 11  1  0  0  0  0
 13 14  1  0  0  0  0
 14 19  1  1  0  0  0
 15 14  1  0  0  0  0
 16 14  1  0  0  0  0
 16 17  1  0  0  0  0
 17 18  1  0  0  0  0
 19 18  1  1  0  0  0
 19 20  1  0  0  0  0
 20 21  1  0  0  0  0
 21 22  1  6  0  0  0
 22 23  1  0  0  0  0
 24 25  1  0  0  0  0
 25 26  2  0  0  0  0
 27 35  1  6  0  0  0
 27 25  1  0  0  0  0
 27 30  1  0  0  0  0
 28 27  1  0  0  0  0
 29 28  1  0  0  0  0
 30 31  1  0  0  0  0
 31 32  2  0  0  0  0
 33 34  1  0  0  0  0
 33 31  1  0  0  0  0
 36 35  1  0  0  0  0
 37 36  1  0  0  0  0
 38 40  1  0  0  0  0
 38 37  1  0  0  0  0
 38 41  1  0  0  0  0
 39 38  1  0  0  0  0
 42 41  1  0  0  0  0
M  END
>  <minimizedAffinity>
-7.58881235

$$$$
