
 OpenBabel12271914543D

 22 23  0  0  1  0  0  0  0  0999 V2000
    8.3040   45.9750   44.3040 C   0  0  2  0  0  0  0  0  0  0  0  0
    8.5530   46.4940   45.7090 C   0  0  2  0  0  0  0  0  0  0  0  0
    8.0340   47.9210   45.7580 O   0  0  0  0  0  0  0  0  0  0  0  0
    7.4360   48.1140   44.4470 C   0  0  2  0  0  0  0  0  0  0  0  0
    8.1840   47.2450   43.5140 C   0  0  0  0  0  0  0  0  0  0  0  0
    7.5830   49.5010   43.9590 C   0  0  0  0  0  0  0  0  0  0  0  0
    7.7190   50.5140   44.9000 C   0  0  0  0  0  0  0  0  0  0  0  0
    7.4440   51.8400   44.5570 C   0  0  0  0  0  0  0  0  0  0  0  0
    7.5030   52.8780   45.6130 C   0  0  0  0  0  0  0  0  0  0  0  0
    7.1180   52.1030   43.2340 C   0  0  0  0  0  0  0  0  0  0  0  0
    7.0440   51.1440   42.2720 N   0  0  0  0  0  0  0  0  0  0  0  0
    7.2870   49.8560   42.6630 C   0  0  0  0  0  0  0  0  0  0  0  0
    6.7990   53.3700   42.7960 O   0  0  0  0  0  0  0  0  0  0  0  0
    6.2130   53.8110   43.4240 H   0  0  0  0  0  0  0  0  0  0  0  0
    7.0390   45.2910   44.2160 O   0  0  0  0  0  0  0  0  0  0  0  0
    7.0460   44.6330   44.9440 H   0  0  0  0  0  0  0  0  0  0  0  0
   10.0240   46.5340   46.0330 C   0  0  0  0  0  0  0  0  0  0  0  0
   10.2860   47.5540   46.9890 O   0  0  0  0  0  0  0  0  0  0  0  0
   10.3950   47.0810   48.5820 P   0  0  0  0  0  0  0  0  0  0  0  0
   11.4780   47.9650   49.1620 O   0  0  0  0  0  0  0  0  0  0  0  0
   10.8260   45.6520   48.4670 O   0  0  0  0  0  0  0  0  0  0  0  0
    9.0510   47.3310   49.1720 O   0  0  0  0  0  0  0  0  0  0  0  0
  1 15  1  1  0  0  0
  1  2  1  0  0  0  0
  2  3  1  0  0  0  0
  2 17  1  6  0  0  0
  4  6  1  6  0  0  0
  4  3  1  0  0  0  0
  5  1  1  0  0  0  0
  5  4  1  0  0  0  0
  6  7  1  0  0  0  0
  8  7  2  0  0  0  0
  8  9  1  0  0  0  0
 10  8  1  0  0  0  0
 11 12  1  0  0  0  0
 11 10  2  0  0  0  0
 12  6  2  0  0  0  0
 13 10  1  0  0  0  0
 13 14  1  0  0  0  0
 15 16  1  0  0  0  0
 17 18  1  0  0  0  0
 18 19  1  0  0  0  0
 19 20  1  0  0  0  0
 19 22  1  0  0  0  0
 21 19  2  0  0  0  0
M  END
>  <minimizedAffinity>
-7.58751535

$$$$

 OpenBabel12271914543D

 22 23  0  0  1  0  0  0  0  0999 V2000
    8.9070   47.0130   42.6980 C   0  0  2  0  0  0  0  0  0  0  0  0
    7.6700   46.6560   43.5020 C   0  0  2  0  0  0  0  0  0  0  0  0
    6.8390   47.9210   43.6310 O   0  0  0  0  0  0  0  0  0  0  0  0
    7.5660   48.8930   42.8310 C   0  0  2  0  0  0  0  0  0  0  0  0
    8.9900   48.4990   42.8880 C   0  0  0  0  0  0  0  0  0  0  0  0
    7.4730   50.2600   43.3840 C   0  0  0  0  0  0  0  0  0  0  0  0
    7.3560   51.3190   42.4930 C   0  0  0  0  0  0  0  0  0  0  0  0
    7.6800   52.6190   42.8910 C   0  0  0  0  0  0  0  0  0  0  0  0
    7.6380   53.7050   41.8840 C   0  0  0  0  0  0  0  0  0  0  0  0
    8.0360   52.8100   44.2180 C   0  0  0  0  0  0  0  0  0  0  0  0
    8.0940   51.8050   45.1340 N   0  0  0  0  0  0  0  0  0  0  0  0
    7.8020   50.5450   44.6890 C   0  0  0  0  0  0  0  0  0  0  0  0
    8.4050   54.0440   44.7080 O   0  0  0  0  0  0  0  0  0  0  0  0
    8.9950   54.4940   44.0900 H   0  0  0  0  0  0  0  0  0  0  0  0
    8.7060   46.7690   41.2930 O   0  0  0  0  0  0  0  0  0  0  0  0
    8.3810   45.8440   41.2320 H   0  0  0  0  0  0  0  0  0  0  0  0
    8.0250   46.2010   44.8940 C   0  0  0  0  0  0  0  0  0  0  0  0
    9.4360   46.2320   45.0730 O   0  0  0  0  0  0  0  0  0  0  0  0
   10.0000   46.9190   46.4810 P   0  0  0  0  0  0  0  0  0  0  0  0
    8.7990   47.6400   47.0530 O   0  0  0  0  0  0  0  0  0  0  0  0
   11.0500   47.8640   45.9840 O   0  0  0  0  0  0  0  0  0  0  0  0
   10.4630   45.7850   47.3270 O   0  0  0  0  0  0  0  0  0  0  0  0
  1 15  1  6  0  0  0
  1  5  1  0  0  0  0
  1  2  1  0  0  0  0
  2  3  1  0  0  0  0
  2 17  1  1  0  0  0
  4  5  1  0  0  0  0
  4  6  1  1  0  0  0
  4  3  1  0  0  0  0
  6 12  2  0  0  0  0
  7  8  2  0  0  0  0
  7  6  1  0  0  0  0
  8 10  1  0  0  0  0
  9  8  1  0  0  0  0
 10 13  1  0  0  0  0
 10 11  2  0  0  0  0
 12 11  1  0  0  0  0
 14 13  1  0  0  0  0
 16 15  1  0  0  0  0
 17 18  1  0  0  0  0
 18 19  1  0  0  0  0
 19 20  1  0  0  0  0
 19 22  1  0  0  0  0
 21 19  2  0  0  0  0
M  END
>  <minimizedAffinity>
-7.54549408

$$$$

 OpenBabel12271914543D

 22 23  0  0  1  0  0  0  0  0999 V2000
    9.3880   47.0410   44.1660 C   0  0  2  0  0  0  0  0  0  0  0  0
    8.1750   47.0280   45.0790 C   0  0  2  0  0  0  0  0  0  0  0  0
    7.0880   47.8380   44.3930 O   0  0  0  0  0  0  0  0  0  0  0  0
    7.6760   48.1830   43.1080 C   0  0  2  0  0  0  0  0  0  0  0  0
    9.1370   48.2580   43.3240 C   0  0  0  0  0  0  0  0  0  0  0  0
    7.2410   49.5100   42.6280 C   0  0  0  0  0  0  0  0  0  0  0  0
    6.7280   49.6040   41.3400 C   0  0  0  0  0  0  0  0  0  0  0  0
    6.6940   50.8350   40.6790 C   0  0  0  0  0  0  0  0  0  0  0  0
    6.2330   50.8770   39.2720 C   0  0  0  0  0  0  0  0  0  0  0  0
    7.1100   51.9520   41.3890 C   0  0  0  0  0  0  0  0  0  0  0  0
    7.5530   51.9050   42.6750 N   0  0  0  0  0  0  0  0  0  0  0  0
    7.6010   50.6740   43.2680 C   0  0  0  0  0  0  0  0  0  0  0  0
    7.1470   53.2090   40.8240 O   0  0  0  0  0  0  0  0  0  0  0  0
    7.5130   53.1700   39.9310 H   0  0  0  0  0  0  0  0  0  0  0  0
    9.3910   45.9010   43.2850 O   0  0  0  0  0  0  0  0  0  0  0  0
    9.2750   45.1200   43.8680 H   0  0  0  0  0  0  0  0  0  0  0  0
    8.4690   47.6890   46.4010 C   0  0  0  0  0  0  0  0  0  0  0  0
    9.8570   47.5880   46.6990 O   0  0  0  0  0  0  0  0  0  0  0  0
   10.2610   46.9540   48.1840 P   0  0  0  0  0  0  0  0  0  0  0  0
   10.5530   45.4960   47.9020 O   0  0  0  0  0  0  0  0  0  0  0  0
    9.0030   47.1420   48.9720 O   0  0  0  0  0  0  0  0  0  0  0  0
   11.4570   47.7170   48.6370 O   0  0  0  0  0  0  0  0  0  0  0  0
  1 15  1  6  0  0  0
  1  2  1  0  0  0  0
  2 17  1  1  0  0  0
  3  2  1  0  0  0  0
  4  6  1  1  0  0  0
  4  5  1  0  0  0  0
  4  3  1  0  0  0  0
  5  1  1  0  0  0  0
  6 12  2  0  0  0  0
  7  6  1  0  0  0  0
  8  7  2  0  0  0  0
  8 10  1  0  0  0  0
  9  8  1  0  0  0  0
 10 11  2  0  0  0  0
 11 12  1  0  0  0  0
 13 10  1  0  0  0  0
 14 13  1  0  0  0  0
 15 16  1  0  0  0  0
 17 18  1  0  0  0  0
 18 19  1  0  0  0  0
 19 22  1  0  0  0  0
 19 21  1  0  0  0  0
 20 19  2  0  0  0  0
M  END
>  <minimizedAffinity>
-7.32910633

$$$$

 OpenBabel12271914543D

 22 23  0  0  1  0  0  0  0  0999 V2000
    8.1100   47.8350   45.3560 C   0  0  2  0  0  0  0  0  0  0  0  0
    9.1640   47.7880   44.2640 C   0  0  2  0  0  0  0  0  0  0  0  0
    9.3300   49.2050   43.7410 O   0  0  0  0  0  0  0  0  0  0  0  0
    8.4640   49.9940   44.6020 C   0  0  2  0  0  0  0  0  0  0  0  0
    7.3670   49.0970   45.0260 C   0  0  0  0  0  0  0  0  0  0  0  0
    7.8440   51.1290   43.8900 C   0  0  0  0  0  0  0  0  0  0  0  0
    7.3630   50.9110   42.6050 C   0  0  0  0  0  0  0  0  0  0  0  0
    7.1590   51.9830   41.7330 C   0  0  0  0  0  0  0  0  0  0  0  0
    6.7400   51.7010   40.3390 C   0  0  0  0  0  0  0  0  0  0  0  0
    7.3760   53.2600   42.2300 C   0  0  0  0  0  0  0  0  0  0  0  0
    7.7810   53.5130   43.5040 N   0  0  0  0  0  0  0  0  0  0  0  0
    8.0000   52.4300   44.3100 C   0  0  0  0  0  0  0  0  0  0  0  0
    7.2350   54.3860   41.4470 O   0  0  0  0  0  0  0  0  0  0  0  0
    7.6300   54.2470   40.5760 H   0  0  0  0  0  0  0  0  0  0  0  0
    8.7100   48.0160   46.6540 O   0  0  0  0  0  0  0  0  0  0  0  0
    9.3990   47.3200   46.7230 H   0  0  0  0  0  0  0  0  0  0  0  0
    8.7270   46.9250   43.1090 C   0  0  0  0  0  0  0  0  0  0  0  0
    8.5320   47.7250   41.9480 O   0  0  0  0  0  0  0  0  0  0  0  0
    7.2020   47.3760   41.0100 P   0  0  0  0  0  0  0  0  0  0  0  0
    6.0210   47.7510   41.8790 O   0  0  0  0  0  0  0  0  0  0  0  0
    7.3200   45.8970   40.8150 O   0  0  0  0  0  0  0  0  0  0  0  0
    7.3310   48.2250   39.7940 O   0  0  0  0  0  0  0  0  0  0  0  0
  1 15  1  1  0  0  0
  2 17  1  6  0  0  0
  2  1  1  0  0  0  0
  3  2  1  0  0  0  0
  3  4  1  0  0  0  0
  4  6  1  6  0  0  0
  4  5  1  0  0  0  0
  5  1  1  0  0  0  0
  6 12  2  0  0  0  0
  7  6  1  0  0  0  0
  8 10  1  0  0  0  0
  8  7  2  0  0  0  0
  9  8  1  0  0  0  0
 10 11  2  0  0  0  0
 11 12  1  0  0  0  0
 13 10  1  0  0  0  0
 14 13  1  0  0  0  0
 15 16  1  0  0  0  0
 18 17  1  0  0  0  0
 19 20  1  0  0  0  0
 19 18  1  0  0  0  0
 21 19  1  0  0  0  0
 22 19  2  0  0  0  0
M  END
>  <minimizedAffinity>
-7.32532835

$$$$

 OpenBabel12271914543D

 22 23  0  0  1  0  0  0  0  0999 V2000
    8.9140   46.1550   42.4830 C   0  0  2  0  0  0  0  0  0  0  0  0
    7.5650   45.8140   43.0900 C   0  0  2  0  0  0  0  0  0  0  0  0
    6.5850   46.8820   42.6340 O   0  0  0  0  0  0  0  0  0  0  0  0
    7.3710   47.7060   41.7300 C   0  0  2  0  0  0  0  0  0  0  0  0
    8.7710   47.6220   42.1990 C   0  0  0  0  0  0  0  0  0  0  0  0
    6.9820   49.1300   41.7840 C   0  0  0  0  0  0  0  0  0  0  0  0
    6.5350   49.7300   40.6140 C   0  0  0  0  0  0  0  0  0  0  0  0
    6.5530   51.1220   40.4800 C   0  0  0  0  0  0  0  0  0  0  0  0
    6.1620   51.7190   39.1810 C   0  0  0  0  0  0  0  0  0  0  0  0
    6.9520   51.8640   41.5820 C   0  0  0  0  0  0  0  0  0  0  0  0
    7.3300   51.3100   42.7650 N   0  0  0  0  0  0  0  0  0  0  0  0
    7.3290   49.9440   42.8370 C   0  0  0  0  0  0  0  0  0  0  0  0
    7.0370   53.2390   41.5480 O   0  0  0  0  0  0  0  0  0  0  0  0
    7.4450   53.5350   40.7250 H   0  0  0  0  0  0  0  0  0  0  0  0
    9.1030   45.4880   41.2200 O   0  0  0  0  0  0  0  0  0  0  0  0
    8.9150   44.5400   41.3940 H   0  0  0  0  0  0  0  0  0  0  0  0
    7.6090   45.8490   44.5950 C   0  0  0  0  0  0  0  0  0  0  0  0
    6.4820   46.5570   45.1000 O   0  0  0  0  0  0  0  0  0  0  0  0
    6.6750   47.3300   46.5620 P   0  0  0  0  0  0  0  0  0  0  0  0
    7.1500   48.7190   46.1920 O   0  0  0  0  0  0  0  0  0  0  0  0
    7.7460   46.5180   47.2210 O   0  0  0  0  0  0  0  0  0  0  0  0
    5.3320   47.3200   47.2050 O   0  0  0  0  0  0  0  0  0  0  0  0
  1 15  1  6  0  0  0
  1  2  1  0  0  0  0
  2 17  1  1  0  0  0
  3  2  1  0  0  0  0
  4  6  1  1  0  0  0
  4  5  1  0  0  0  0
  4  3  1  0  0  0  0
  5  1  1  0  0  0  0
  6 12  2  0  0  0  0
  7  6  1  0  0  0  0
  8  7  2  0  0  0  0
  8 10  1  0  0  0  0
  9  8  1  0  0  0  0
 10 11  2  0  0  0  0
 11 12  1  0  0  0  0
 13 10  1  0  0  0  0
 14 13  1  0  0  0  0
 15 16  1  0  0  0  0
 17 18  1  0  0  0  0
 18 19  1  0  0  0  0
 19 22  1  0  0  0  0
 19 21  1  0  0  0  0
 20 19  2  0  0  0  0
M  END
>  <minimizedAffinity>
-7.27640533

$$$$

 OpenBabel12271914543D

 22 23  0  0  1  0  0  0  0  0999 V2000
    7.3370   48.2760   43.7420 C   0  0  2  0  0  0  0  0  0  0  0  0
    8.3150   49.4330   43.8340 C   0  0  2  0  0  0  0  0  0  0  0  0
    9.4810   48.9660   44.6880 O   0  0  0  0  0  0  0  0  0  0  0  0
    9.1760   47.5690   44.9530 C   0  0  2  0  0  0  0  0  0  0  0  0
    7.7020   47.4550   44.9430 C   0  0  0  0  0  0  0  0  0  0  0  0
    9.6350   47.1370   46.2890 C   0  0  0  0  0  0  0  0  0  0  0  0
    8.7040   47.0950   47.3190 C   0  0  0  0  0  0  0  0  0  0  0  0
    9.1210   47.1110   48.6520 C   0  0  0  0  0  0  0  0  0  0  0  0
    8.0960   47.1660   49.7210 C   0  0  0  0  0  0  0  0  0  0  0  0
   10.4870   47.0850   48.8940 C   0  0  0  0  0  0  0  0  0  0  0  0
   11.4250   47.0550   47.9090 N   0  0  0  0  0  0  0  0  0  0  0  0
   10.9700   47.0760   46.6200 C   0  0  0  0  0  0  0  0  0  0  0  0
   11.0070   47.1290   50.1700 O   0  0  0  0  0  0  0  0  0  0  0  0
   10.5410   47.7830   50.7060 H   0  0  0  0  0  0  0  0  0  0  0  0
    7.5910   47.4680   42.5760 O   0  0  0  0  0  0  0  0  0  0  0  0
    7.6160   48.0980   41.8220 H   0  0  0  0  0  0  0  0  0  0  0  0
    7.6990   50.6260   44.5180 C   0  0  0  0  0  0  0  0  0  0  0  0
    8.5410   51.7630   44.3690 O   0  0  0  0  0  0  0  0  0  0  0  0
    7.7880   53.2370   44.1920 P   0  0  0  0  0  0  0  0  0  0  0  0
    8.0090   53.5990   42.7390 O   0  0  0  0  0  0  0  0  0  0  0  0
    8.5660   54.1140   45.1230 O   0  0  0  0  0  0  0  0  0  0  0  0
    6.3570   53.0030   44.5280 O   0  0  0  0  0  0  0  0  0  0  0  0
  1 15  1  6  0  0  0
  1  2  1  0  0  0  0
  1  5  1  0  0  0  0
  2 17  1  1  0  0  0
  2  3  1  0  0  0  0
  3  4  1  0  0  0  0
  4  6  1  1  0  0  0
  5  4  1  0  0  0  0
  6 12  2  0  0  0  0
  6  7  1  0  0  0  0
  7  8  2  0  0  0  0
  8 10  1  0  0  0  0
  8  9  1  0  0  0  0
 10 13  1  0  0  0  0
 11 10  2  0  0  0  0
 12 11  1  0  0  0  0
 13 14  1  0  0  0  0
 16 15  1  0  0  0  0
 18 17  1  0  0  0  0
 19 18  1  0  0  0  0
 19 22  1  0  0  0  0
 19 21  1  0  0  0  0
 20 19  2  0  0  0  0
M  END
>  <minimizedAffinity>
-7.20552063

$$$$

 OpenBabel12271914543D

 22 23  0  0  1  0  0  0  0  0999 V2000
    7.2490   46.1140   43.3420 C   0  0  2  0  0  0  0  0  0  0  0  0
    8.7200   46.2270   42.9830 C   0  0  2  0  0  0  0  0  0  0  0  0
    9.1550   47.6440   43.3150 O   0  0  0  0  0  0  0  0  0  0  0  0
    7.9730   48.2320   43.9260 C   0  0  2  0  0  0  0  0  0  0  0  0
    6.8080   47.5480   43.3250 C   0  0  0  0  0  0  0  0  0  0  0  0
    7.8370   49.6700   43.6190 C   0  0  0  0  0  0  0  0  0  0  0  0
    7.9120   50.5730   44.6710 C   0  0  0  0  0  0  0  0  0  0  0  0
    7.3870   51.8620   44.5380 C   0  0  0  0  0  0  0  0  0  0  0  0
    7.3970   52.7630   45.7140 C   0  0  0  0  0  0  0  0  0  0  0  0
    6.8750   52.2170   43.2980 C   0  0  0  0  0  0  0  0  0  0  0  0
    6.8490   51.3790   42.2260 N   0  0  0  0  0  0  0  0  0  0  0  0
    7.3420   50.1180   42.4160 C   0  0  0  0  0  0  0  0  0  0  0  0
    6.3060   53.4510   43.0660 O   0  0  0  0  0  0  0  0  0  0  0  0
    5.7310   53.7050   43.7990 H   0  0  0  0  0  0  0  0  0  0  0  0
    7.0740   45.6250   44.6860 O   0  0  0  0  0  0  0  0  0  0  0  0
    7.6140   44.8070   44.7390 H   0  0  0  0  0  0  0  0  0  0  0  0
    8.9500   46.0130   41.5100 C   0  0  0  0  0  0  0  0  0  0  0  0
    9.2660   44.6490   41.2580 O   0  0  0  0  0  0  0  0  0  0  0  0
    8.3710   43.8750   40.0870 P   0  0  0  0  0  0  0  0  0  0  0  0
    8.6060   44.6900   38.8340 O   0  0  0  0  0  0  0  0  0  0  0  0
    6.9730   44.0120   40.6040 O   0  0  0  0  0  0  0  0  0  0  0  0
    8.9220   42.4940   40.0030 O   0  0  0  0  0  0  0  0  0  0  0  0
  1 15  1  1  0  0  0
  2 17  1  6  0  0  0
  2  3  1  0  0  0  0
  2  1  1  0  0  0  0
  3  4  1  0  0  0  0
  4  6  1  6  0  0  0
  5  1  1  0  0  0  0
  5  4  1  0  0  0  0
  6  7  1  0  0  0  0
  8  7  2  0  0  0  0
  8  9  1  0  0  0  0
 10  8  1  0  0  0  0
 11 12  1  0  0  0  0
 11 10  2  0  0  0  0
 12  6  2  0  0  0  0
 13 10  1  0  0  0  0
 13 14  1  0  0  0  0
 15 16  1  0  0  0  0
 18 17  1  0  0  0  0
 19 21  1  0  0  0  0
 19 18  1  0  0  0  0
 20 19  2  0  0  0  0
 22 19  1  0  0  0  0
M  END
>  <minimizedAffinity>
-7.13277578

$$$$

 OpenBabel12271914543D

 22 23  0  0  1  0  0  0  0  0999 V2000
    8.0840   47.8780   45.3030 C   0  0  2  0  0  0  0  0  0  0  0  0
    9.1300   47.8190   44.2040 C   0  0  2  0  0  0  0  0  0  0  0  0
    9.3060   49.2320   43.6760 O   0  0  0  0  0  0  0  0  0  0  0  0
    8.4520   50.0310   44.5410 C   0  0  2  0  0  0  0  0  0  0  0  0
    7.3500   49.1450   44.9730 C   0  0  0  0  0  0  0  0  0  0  0  0
    7.8370   51.1700   43.8280 C   0  0  0  0  0  0  0  0  0  0  0  0
    7.3670   50.9570   42.5390 C   0  0  0  0  0  0  0  0  0  0  0  0
    7.1700   52.0340   41.6700 C   0  0  0  0  0  0  0  0  0  0  0  0
    6.7620   51.7580   40.2720 C   0  0  0  0  0  0  0  0  0  0  0  0
    7.3820   53.3090   42.1740 C   0  0  0  0  0  0  0  0  0  0  0  0
    7.7770   53.5560   43.4530 N   0  0  0  0  0  0  0  0  0  0  0  0
    7.9900   52.4690   44.2550 C   0  0  0  0  0  0  0  0  0  0  0  0
    7.2480   54.4380   41.3960 O   0  0  0  0  0  0  0  0  0  0  0  0
    7.6500   54.3030   40.5280 H   0  0  0  0  0  0  0  0  0  0  0  0
    8.6930   48.0580   46.5960 O   0  0  0  0  0  0  0  0  0  0  0  0
    9.3760   47.3550   46.6630 H   0  0  0  0  0  0  0  0  0  0  0  0
    8.6790   46.9560   43.0550 C   0  0  0  0  0  0  0  0  0  0  0  0
    9.3870   45.7220   43.0630 O   0  0  0  0  0  0  0  0  0  0  0  0
    8.6280   44.4260   43.7820 P   0  0  0  0  0  0  0  0  0  0  0  0
    9.1430   44.4340   45.2060 O   0  0  0  0  0  0  0  0  0  0  0  0
    9.1490   43.2660   42.9930 O   0  0  0  0  0  0  0  0  0  0  0  0
    7.1690   44.7050   43.6820 O   0  0  0  0  0  0  0  0  0  0  0  0
  1 15  1  1  0  0  0
  2 17  1  6  0  0  0
  2  1  1  0  0  0  0
  3  2  1  0  0  0  0
  3  4  1  0  0  0  0
  4  6  1  6  0  0  0
  4  5  1  0  0  0  0
  5  1  1  0  0  0  0
  6 12  2  0  0  0  0
  7  6  1  0  0  0  0
  8 10  1  0  0  0  0
  8  7  2  0  0  0  0
  9  8  1  0  0  0  0
 10 11  2  0  0  0  0
 11 12  1  0  0  0  0
 13 10  1  0  0  0  0
 14 13  1  0  0  0  0
 15 16  1  0  0  0  0
 17 18  1  0  0  0  0
 18 19  1  0  0  0  0
 19 20  1  0  0  0  0
 21 19  2  0  0  0  0
 22 19  1  0  0  0  0
M  END
>  <minimizedAffinity>
-7.11709118

$$$$

 OpenBabel12271914543D

 22 23  0  0  1  0  0  0  0  0999 V2000
    7.0700   49.0420   37.9660 C   0  0  2  0  0  0  0  0  0  0  0  0
    6.7350   47.8010   38.7730 C   0  0  2  0  0  0  0  0  0  0  0  0
    6.2150   48.2700   40.1210 O   0  0  0  0  0  0  0  0  0  0  0  0
    6.1790   49.7180   39.9910 C   0  0  2  0  0  0  0  0  0  0  0  0
    7.2500   50.0780   39.0370 C   0  0  0  0  0  0  0  0  0  0  0  0
    6.4840   50.4050   41.2630 C   0  0  0  0  0  0  0  0  0  0  0  0
    6.6550   51.7830   41.2370 C   0  0  0  0  0  0  0  0  0  0  0  0
    7.3390   52.4310   42.2690 C   0  0  0  0  0  0  0  0  0  0  0  0
    7.5880   53.8880   42.1560 C   0  0  0  0  0  0  0  0  0  0  0  0
    7.7570   51.6580   43.3420 C   0  0  0  0  0  0  0  0  0  0  0  0
    7.5450   50.3170   43.4310 N   0  0  0  0  0  0  0  0  0  0  0  0
    6.9020   49.7210   42.3820 C   0  0  0  0  0  0  0  0  0  0  0  0
    8.4670   52.1900   44.3970 O   0  0  0  0  0  0  0  0  0  0  0  0
    9.1490   52.7950   44.0790 H   0  0  0  0  0  0  0  0  0  0  0  0
    5.9540   49.4540   37.1520 O   0  0  0  0  0  0  0  0  0  0  0  0
    5.6840   48.6520   36.6540 H   0  0  0  0  0  0  0  0  0  0  0  0
    7.9580   46.9570   39.0260 C   0  0  0  0  0  0  0  0  0  0  0  0
    8.2540   46.9320   40.4170 O   0  0  0  0  0  0  0  0  0  0  0  0
    8.3970   45.4340   41.1280 P   0  0  0  0  0  0  0  0  0  0  0  0
    7.4640   45.4930   42.3180 O   0  0  0  0  0  0  0  0  0  0  0  0
    9.8380   45.4010   41.5330 O   0  0  0  0  0  0  0  0  0  0  0  0
    7.9690   44.4530   40.0920 O   0  0  0  0  0  0  0  0  0  0  0  0
  1 15  1  6  0  0  0
  1  2  1  0  0  0  0
  1  5  1  0  0  0  0
  2 17  1  1  0  0  0
  2  3  1  0  0  0  0
  4  3  1  0  0  0  0
  4  6  1  1  0  0  0
  5  4  1  0  0  0  0
  6 12  2  0  0  0  0
  7  6  1  0  0  0  0
  7  8  2  0  0  0  0
  8 10  1  0  0  0  0
  9  8  1  0  0  0  0
 10 11  2  0  0  0  0
 10 13  1  0  0  0  0
 12 11  1  0  0  0  0
 14 13  1  0  0  0  0
 16 15  1  0  0  0  0
 17 18  1  0  0  0  0
 18 19  1  0  0  0  0
 19 21  1  0  0  0  0
 19 20  1  0  0  0  0
 22 19  2  0  0  0  0
M  END
>  <minimizedAffinity>
-7.0016799

$$$$
