
 OpenBabel12271914573D

 37 41  0  0  1  0  0  0  0  0999 V2000
    8.4440   48.9760   44.4450 C   0  0  2  0  0  0  0  0  0  0  0  0
    7.2880   48.2780   44.9860 O   0  0  0  0  0  0  0  0  0  0  0  0
    7.2750   47.4730   46.0830 C   0  0  0  0  0  0  0  0  0  0  0  0
    6.1900   47.0920   46.5110 O   0  0  0  0  0  0  0  0  0  0  0  0
    8.5680   47.1410   46.6790 C   0  0  1  0  0  0  0  0  0  0  0  0
    9.7950   47.5970   46.2480 C   0  0  0  0  0  0  0  0  0  0  0  0
   10.9220   47.4030   46.7100 O   0  0  0  0  0  0  0  0  0  0  0  0
    9.8140   48.4910   45.0160 C   0  0  0  0  0  0  0  0  0  0  0  0
    8.2460   50.4540   44.8050 C   0  0  0  0  0  0  0  0  0  0  0  0
    8.2120   51.4730   43.6280 C   0  0  0  0  0  0  0  0  0  0  0  0
    7.1130   52.4910   43.9910 C   0  0  0  0  0  0  0  0  0  0  0  0
    6.8380   52.2080   45.4570 C   0  0  0  0  0  0  0  0  0  0  0  0
    6.8850   50.7100   45.4790 C   0  0  0  0  0  0  0  0  0  0  0  0
    8.5730   46.2530   47.9090 C   0  0  0  0  0  0  0  0  0  0  0  0
    8.3510   47.0150   49.2060 C   0  0  0  0  0  0  0  0  0  0  0  0
    7.1250   47.4410   49.6610 N   0  0  0  0  0  0  0  0  0  0  0  0
    7.3760   48.0530   50.7980 C   0  0  0  0  0  0  0  0  0  0  0  0
    6.5370   48.6820   51.7030 N   0  0  0  0  0  0  0  0  0  0  0  0
    7.0410   49.2440   52.7370 C   0  0  0  0  0  0  0  0  0  0  0  0
    6.1170   49.9490   53.7270 C   0  0  0  0  0  0  0  0  0  0  0  0
    8.5170   49.2500   53.0510 C   0  0  0  0  0  0  0  0  0  0  0  0
    9.3040   48.6410   52.1710 C   0  0  0  0  0  0  0  0  0  0  0  0
   10.8080   48.5680   52.3380 C   0  0  0  0  0  0  0  0  0  0  0  0
    8.7490   48.0200   51.0150 N   0  0  0  0  0  0  0  0  0  0  0  0
    9.3720   47.3850   50.0270 N   0  0  0  0  0  0  0  0  0  0  0  0
    8.3250   48.6670   42.9230 C   0  0  0  0  0  0  0  0  0  0  0  0
    6.9970   48.2720   42.2390 C   0  0  0  0  0  0  0  0  0  0  0  0
    6.4020   50.6830   39.3650 C   0  0  0  0  0  0  0  0  0  0  0  0
    6.3300   49.8510   38.3040 N   0  0  0  0  0  0  0  0  0  0  0  0
    6.3910   48.5230   38.5090 C   0  0  0  0  0  0  0  0  0  0  0  0
    6.5900   47.9620   39.7820 C   0  0  0  0  0  0  0  0  0  0  0  0
    6.6990   48.8200   40.8690 C   0  0  0  0  0  0  0  0  0  0  0  0
    6.5900   50.1870   40.6610 C   0  0  0  0  0  0  0  0  0  0  0  0
    7.0840   52.9600   40.1910 C   0  0  0  0  0  0  0  0  0  0  0  0
    6.3110   52.1750   39.1280 C   0  0  0  0  0  0  0  0  0  0  0  0
    6.2900   47.6000   37.3190 C   0  0  0  0  0  0  0  0  0  0  0  0
    6.0120   48.3960   36.0510 C   0  0  0  0  0  0  0  0  0  0  0  0
  1 26  1  6  0  0  0
  1  9  1  0  0  0  0
  1  2  1  0  0  0  0
  1  8  1  0  0  0  0
  2  3  1  0  0  0  0
  3  4  2  0  0  0  0
  3  5  1  0  0  0  0
  5 14  1  1  0  0  0
  6  5  1  0  0  0  0
  6  7  2  0  0  0  0
  8  6  1  0  0  0  0
  9 13  1  0  0  0  0
 10 11  1  0  0  0  0
 10  9  1  0  0  0  0
 11 12  1  0  0  0  0
 12 13  1  0  0  0  0
 14 15  1  0  0  0  0
 15 16  2  0  0  0  0
 15 25  2  0  0  0  0
 16 17  2  0  0  0  0
 17 24  1  0  0  0  0
 17 18  2  0  0  0  0
 18 19  2  0  0  0  0
 19 21  1  0  0  0  0
 19 20  1  0  0  0  0
 22 23  1  0  0  0  0
 22 21  2  0  0  0  0
 24 22  1  0  0  0  0
 25 24  1  0  0  0  0
 27 26  1  0  0  0  0
 28 33  1  0  0  0  0
 29 30  2  0  0  0  0
 29 28  2  0  0  0  0
 30 31  1  0  0  0  0
 31 32  1  0  0  0  0
 32 27  1  0  0  0  0
 33 32  2  0  0  0  0
 35 28  1  0  0  0  0
 35 34  1  0  0  0  0
 36 30  1  0  0  0  0
 37 36  1  0  0  0  0
M  END
>  <minimizedAffinity>
-10.987359

$$$$

 OpenBabel12271914573D

 37 41  0  0  1  0  0  0  0  0999 V2000
    8.4450   48.9180   44.4470 C   0  0  2  0  0  0  0  0  0  0  0  0
    7.2920   48.2250   45.0000 O   0  0  0  0  0  0  0  0  0  0  0  0
    7.2840   47.4320   46.1050 C   0  0  0  0  0  0  0  0  0  0  0  0
    6.2020   47.0530   46.5420 O   0  0  0  0  0  0  0  0  0  0  0  0
    8.5800   47.1090   46.7000 C   0  0  1  0  0  0  0  0  0  0  0  0
    9.8040   47.5620   46.2600 C   0  0  0  0  0  0  0  0  0  0  0  0
   10.9330   47.3750   46.7200 O   0  0  0  0  0  0  0  0  0  0  0  0
    9.8180   48.4420   45.0180 C   0  0  0  0  0  0  0  0  0  0  0  0
    8.2450   50.3990   44.7910 C   0  0  0  0  0  0  0  0  0  0  0  0
    8.1880   51.4030   43.6020 C   0  0  0  0  0  0  0  0  0  0  0  0
    7.0900   52.4210   43.9680 C   0  0  0  0  0  0  0  0  0  0  0  0
    6.8390   52.1560   45.4420 C   0  0  0  0  0  0  0  0  0  0  0  0
    6.8930   50.6580   45.4820 C   0  0  0  0  0  0  0  0  0  0  0  0
    8.5910   46.2340   47.9400 C   0  0  0  0  0  0  0  0  0  0  0  0
    8.3600   47.0080   49.2290 C   0  0  0  0  0  0  0  0  0  0  0  0
    7.1310   47.4370   49.6720 N   0  0  0  0  0  0  0  0  0  0  0  0
    7.3740   48.0600   50.8050 C   0  0  0  0  0  0  0  0  0  0  0  0
    6.5290   48.6970   51.6990 N   0  0  0  0  0  0  0  0  0  0  0  0
    7.0270   49.2700   52.7300 C   0  0  0  0  0  0  0  0  0  0  0  0
    6.0950   49.9830   53.7070 C   0  0  0  0  0  0  0  0  0  0  0  0
    8.5010   49.2810   53.0520 C   0  0  0  0  0  0  0  0  0  0  0  0
    9.2940   48.6650   52.1820 C   0  0  0  0  0  0  0  0  0  0  0  0
   10.7970   48.5960   52.3590 C   0  0  0  0  0  0  0  0  0  0  0  0
    8.7460   48.0320   51.0300 N   0  0  0  0  0  0  0  0  0  0  0  0
    9.3760   47.3880   50.0510 N   0  0  0  0  0  0  0  0  0  0  0  0
    8.3210   48.5920   42.9290 C   0  0  0  0  0  0  0  0  0  0  0  0
    6.9720   48.3120   42.2290 C   0  0  0  0  0  0  0  0  0  0  0  0
    6.4190   48.4010   38.4720 C   0  0  0  0  0  0  0  0  0  0  0  0
    6.2120   49.7160   38.2440 N   0  0  0  0  0  0  0  0  0  0  0  0
    6.3260   50.5830   39.2670 C   0  0  0  0  0  0  0  0  0  0  0  0
    6.5910   50.1690   40.5840 C   0  0  0  0  0  0  0  0  0  0  0  0
    6.7700   48.8120   40.8240 C   0  0  0  0  0  0  0  0  0  0  0  0
    6.6970   47.9250   39.7600 C   0  0  0  0  0  0  0  0  0  0  0  0
    6.2890   48.1700   35.9700 C   0  0  0  0  0  0  0  0  0  0  0  0
    6.3100   47.4350   37.3130 C   0  0  0  0  0  0  0  0  0  0  0  0
    6.1130   52.0520   38.9990 C   0  0  0  0  0  0  0  0  0  0  0  0
    6.9530   52.8940   39.9510 C   0  0  0  0  0  0  0  0  0  0  0  0
  1 26  1  6  0  0  0
  1  9  1  0  0  0  0
  1  2  1  0  0  0  0
  1  8  1  0  0  0  0
  2  3  1  0  0  0  0
  3  4  2  0  0  0  0
  3  5  1  0  0  0  0
  5 14  1  1  0  0  0
  6  5  1  0  0  0  0
  6  7  2  0  0  0  0
  8  6  1  0  0  0  0
  9 13  1  0  0  0  0
 10 11  1  0  0  0  0
 10  9  1  0  0  0  0
 11 12  1  0  0  0  0
 12 13  1  0  0  0  0
 14 15  1  0  0  0  0
 15 16  2  0  0  0  0
 15 25  2  0  0  0  0
 16 17  2  0  0  0  0
 17 24  1  0  0  0  0
 17 18  2  0  0  0  0
 18 19  2  0  0  0  0
 19 21  1  0  0  0  0
 19 20  1  0  0  0  0
 22 23  1  0  0  0  0
 22 21  2  0  0  0  0
 24 22  1  0  0  0  0
 25 24  1  0  0  0  0
 27 26  1  0  0  0  0
 28 33  1  0  0  0  0
 29 28  2  0  0  0  0
 29 30  2  0  0  0  0
 30 31  1  0  0  0  0
 31 32  2  0  0  0  0
 32 27  1  0  0  0  0
 33 32  1  0  0  0  0
 34 35  1  0  0  0  0
 35 28  1  0  0  0  0
 36 30  1  0  0  0  0
 36 37  1  0  0  0  0
M  END
>  <minimizedAffinity>
-10.8838797

$$$$

 OpenBabel12271914573D

 37 41  0  0  1  0  0  0  0  0999 V2000
    8.7910   47.5430   44.9380 C   0  0  2  0  0  0  0  0  0  0  0  0
    9.8670   47.1550   45.8360 O   0  0  0  0  0  0  0  0  0  0  0  0
    9.7260   46.5690   47.0560 C   0  0  0  0  0  0  0  0  0  0  0  0
   10.7310   46.1500   47.6200 O   0  0  0  0  0  0  0  0  0  0  0  0
    8.3690   46.4690   47.5910 C   0  0  1  0  0  0  0  0  0  0  0  0
    7.2190   46.8850   46.9560 C   0  0  0  0  0  0  0  0  0  0  0  0
    6.0410   46.8030   47.3110 O   0  0  0  0  0  0  0  0  0  0  0  0
    7.3750   47.5490   45.5950 C   0  0  0  0  0  0  0  0  0  0  0  0
    8.8100   46.5170   43.7980 C   0  0  0  0  0  0  0  0  0  0  0  0
    7.4450   45.8990   43.3750 C   0  0  0  0  0  0  0  0  0  0  0  0
    7.4900   45.8020   41.8370 C   0  0  0  0  0  0  0  0  0  0  0  0
    8.9540   46.0340   41.5100 C   0  0  0  0  0  0  0  0  0  0  0  0
    9.2980   47.1320   42.4720 C   0  0  0  0  0  0  0  0  0  0  0  0
    8.1900   45.8090   48.9460 C   0  0  0  0  0  0  0  0  0  0  0  0
    7.9890   46.8020   50.0800 C   0  0  0  0  0  0  0  0  0  0  0  0
    6.7860   47.3820   50.4060 N   0  0  0  0  0  0  0  0  0  0  0  0
    7.0500   48.1680   51.4270 C   0  0  0  0  0  0  0  0  0  0  0  0
    6.2340   49.0010   52.1750 N   0  0  0  0  0  0  0  0  0  0  0  0
    6.7510   49.7030   53.1140 C   0  0  0  0  0  0  0  0  0  0  0  0
    5.8530   50.6320   53.9280 C   0  0  0  0  0  0  0  0  0  0  0  0
    8.2150   49.6680   53.4770 C   0  0  0  0  0  0  0  0  0  0  0  0
    8.9790   48.8620   52.7480 C   0  0  0  0  0  0  0  0  0  0  0  0
   10.4690   48.7220   52.9830 C   0  0  0  0  0  0  0  0  0  0  0  0
    8.4110   48.0840   51.6990 N   0  0  0  0  0  0  0  0  0  0  0  0
    9.0120   47.2440   50.8610 N   0  0  0  0  0  0  0  0  0  0  0  0
    9.2230   48.9780   44.5140 C   0  0  0  0  0  0  0  0  0  0  0  0
    8.2370   50.1630   44.4070 C   0  0  0  0  0  0  0  0  0  0  0  0
    7.2410   52.0170   41.2450 C   0  0  0  0  0  0  0  0  0  0  0  0
    6.6840   51.0360   40.5010 N   0  0  0  0  0  0  0  0  0  0  0  0
    6.5530   49.8070   41.0330 C   0  0  0  0  0  0  0  0  0  0  0  0
    7.0310   49.4810   42.3150 C   0  0  0  0  0  0  0  0  0  0  0  0
    7.6350   50.4830   43.0650 C   0  0  0  0  0  0  0  0  0  0  0  0
    7.7280   51.7600   42.5330 C   0  0  0  0  0  0  0  0  0  0  0  0
    7.7530   54.4360   41.7060 C   0  0  0  0  0  0  0  0  0  0  0  0
    7.3660   53.4010   40.6470 C   0  0  0  0  0  0  0  0  0  0  0  0
    5.9110   48.7230   40.2030 C   0  0  0  0  0  0  0  0  0  0  0  0
    6.8100   48.3480   39.0320 C   0  0  0  0  0  0  0  0  0  0  0  0
  1 26  1  6  0  0  0
  1  8  1  0  0  0  0
  1  2  1  0  0  0  0
  2  3  1  0  0  0  0
  3  5  1  0  0  0  0
  3  4  2  0  0  0  0
  5 14  1  6  0  0  0
  6  7  2  0  0  0  0
  6  5  1  0  0  0  0
  8  6  1  0  0  0  0
  9  1  1  0  0  0  0
 10  9  1  0  0  0  0
 11 10  1  0  0  0  0
 12 11  1  0  0  0  0
 12 13  1  0  0  0  0
 13  9  1  0  0  0  0
 14 15  1  0  0  0  0
 15 16  2  0  0  0  0
 15 25  2  0  0  0  0
 16 17  2  0  0  0  0
 17 24  1  0  0  0  0
 17 18  2  0  0  0  0
 18 19  2  0  0  0  0
 19 21  1  0  0  0  0
 19 20  1  0  0  0  0
 22 23  1  0  0  0  0
 22 21  2  0  0  0  0
 24 22  1  0  0  0  0
 25 24  1  0  0  0  0
 27 26  1  0  0  0  0
 28 33  1  0  0  0  0
 29 30  2  0  0  0  0
 29 28  2  0  0  0  0
 30 31  1  0  0  0  0
 31 32  1  0  0  0  0
 32 27  1  0  0  0  0
 33 32  2  0  0  0  0
 35 28  1  0  0  0  0
 35 34  1  0  0  0  0
 36 30  1  0  0  0  0
 37 36  1  0  0  0  0
M  END
>  <minimizedAffinity>
-10.6425247

$$$$

 OpenBabel12271914573D

 37 41  0  0  1  0  0  0  0  0999 V2000
    8.6200   47.6880   45.1590 C   0  0  2  0  0  0  0  0  0  0  0  0
    9.7160   47.3250   46.0440 O   0  0  0  0  0  0  0  0  0  0  0  0
    9.6030   46.7280   47.2610 C   0  0  0  0  0  0  0  0  0  0  0  0
   10.6250   46.3330   47.8120 O   0  0  0  0  0  0  0  0  0  0  0  0
    8.2540   46.5880   47.8090 C   0  0  1  0  0  0  0  0  0  0  0  0
    7.0870   46.9760   47.1880 C   0  0  0  0  0  0  0  0  0  0  0  0
    5.9150   46.8610   47.5540 O   0  0  0  0  0  0  0  0  0  0  0  0
    7.2110   47.6530   45.8290 C   0  0  0  0  0  0  0  0  0  0  0  0
    8.6560   46.6700   44.0120 C   0  0  0  0  0  0  0  0  0  0  0  0
    7.2870   46.1600   43.4720 C   0  0  0  0  0  0  0  0  0  0  0  0
    7.4510   46.0680   41.9420 C   0  0  0  0  0  0  0  0  0  0  0  0
    8.9510   46.1880   41.7390 C   0  0  0  0  0  0  0  0  0  0  0  0
    9.2970   47.2520   42.7380 C   0  0  0  0  0  0  0  0  0  0  0  0
    8.1070   45.9160   49.1610 C   0  0  0  0  0  0  0  0  0  0  0  0
    7.8980   46.8980   50.3050 C   0  0  0  0  0  0  0  0  0  0  0  0
    6.7010   47.5040   50.6040 N   0  0  0  0  0  0  0  0  0  0  0  0
    6.9550   48.2680   51.6440 C   0  0  0  0  0  0  0  0  0  0  0  0
    6.1400   49.1110   52.3810 N   0  0  0  0  0  0  0  0  0  0  0  0
    6.6460   49.7850   53.3450 C   0  0  0  0  0  0  0  0  0  0  0  0
    5.7500   50.7250   54.1470 C   0  0  0  0  0  0  0  0  0  0  0  0
    8.0980   49.7060   53.7510 C   0  0  0  0  0  0  0  0  0  0  0  0
    8.8620   48.8910   53.0320 C   0  0  0  0  0  0  0  0  0  0  0  0
   10.3400   48.7080   53.3080 C   0  0  0  0  0  0  0  0  0  0  0  0
    8.3050   48.1440   51.9540 N   0  0  0  0  0  0  0  0  0  0  0  0
    8.9090   47.3010   51.1220 N   0  0  0  0  0  0  0  0  0  0  0  0
    9.0100   49.1370   44.7390 C   0  0  0  0  0  0  0  0  0  0  0  0
    7.9720   50.2540   44.4860 C   0  0  0  0  0  0  0  0  0  0  0  0
    6.6390   50.0290   40.9360 C   0  0  0  0  0  0  0  0  0  0  0  0
    6.7940   51.2950   40.4910 N   0  0  0  0  0  0  0  0  0  0  0  0
    7.3930   52.1990   41.2870 C   0  0  0  0  0  0  0  0  0  0  0  0
    7.8110   51.8970   42.5960 C   0  0  0  0  0  0  0  0  0  0  0  0
    7.6190   50.6040   43.0650 C   0  0  0  0  0  0  0  0  0  0  0  0
    7.0420   49.6610   42.2260 C   0  0  0  0  0  0  0  0  0  0  0  0
    6.5360   49.0960   38.6020 C   0  0  0  0  0  0  0  0  0  0  0  0
    5.9830   49.0130   40.0270 C   0  0  0  0  0  0  0  0  0  0  0  0
    7.5810   53.6050   40.7750 C   0  0  0  0  0  0  0  0  0  0  0  0
    7.5080   54.6040   41.9220 C   0  0  0  0  0  0  0  0  0  0  0  0
  1 26  1  6  0  0  0
  1  8  1  0  0  0  0
  1  2  1  0  0  0  0
  2  3  1  0  0  0  0
  3  5  1  0  0  0  0
  3  4  2  0  0  0  0
  5 14  1  6  0  0  0
  6  7  2  0  0  0  0
  6  5  1  0  0  0  0
  8  6  1  0  0  0  0
  9  1  1  0  0  0  0
 10  9  1  0  0  0  0
 11 10  1  0  0  0  0
 12 11  1  0  0  0  0
 12 13  1  0  0  0  0
 13  9  1  0  0  0  0
 14 15  1  0  0  0  0
 15 16  2  0  0  0  0
 15 25  2  0  0  0  0
 16 17  2  0  0  0  0
 17 24  1  0  0  0  0
 17 18  2  0  0  0  0
 18 19  2  0  0  0  0
 19 21  1  0  0  0  0
 19 20  1  0  0  0  0
 22 23  1  0  0  0  0
 22 21  2  0  0  0  0
 24 22  1  0  0  0  0
 25 24  1  0  0  0  0
 27 26  1  0  0  0  0
 28 33  1  0  0  0  0
 29 28  2  0  0  0  0
 29 30  2  0  0  0  0
 30 31  1  0  0  0  0
 31 32  2  0  0  0  0
 32 27  1  0  0  0  0
 33 32  1  0  0  0  0
 34 35  1  0  0  0  0
 35 28  1  0  0  0  0
 36 30  1  0  0  0  0
 36 37  1  0  0  0  0
M  END
>  <minimizedAffinity>
-10.4772158

$$$$

 OpenBabel12271914573D

 37 41  0  0  1  0  0  0  0  0999 V2000
    8.4650   48.9590   44.3280 C   0  0  2  0  0  0  0  0  0  0  0  0
    7.3280   48.2280   44.8640 O   0  0  0  0  0  0  0  0  0  0  0  0
    7.3340   47.4210   45.9590 C   0  0  0  0  0  0  0  0  0  0  0  0
    6.2600   47.0080   46.3830 O   0  0  0  0  0  0  0  0  0  0  0  0
    8.6340   47.1260   46.5590 C   0  0  1  0  0  0  0  0  0  0  0  0
    9.8490   47.6180   46.1340 C   0  0  0  0  0  0  0  0  0  0  0  0
   10.9790   47.4560   46.5990 O   0  0  0  0  0  0  0  0  0  0  0  0
    9.8470   48.5130   44.9030 C   0  0  0  0  0  0  0  0  0  0  0  0
    8.2230   50.4300   44.6890 C   0  0  0  0  0  0  0  0  0  0  0  0
    7.8930   51.4040   43.5200 C   0  0  0  0  0  0  0  0  0  0  0  0
    6.8050   52.3520   44.0610 C   0  0  0  0  0  0  0  0  0  0  0  0
    6.8290   52.1000   45.5580 C   0  0  0  0  0  0  0  0  0  0  0  0
    6.9940   50.6100   45.6000 C   0  0  0  0  0  0  0  0  0  0  0  0
    8.6600   46.2350   47.7880 C   0  0  0  0  0  0  0  0  0  0  0  0
    8.4220   46.9910   49.0870 C   0  0  0  0  0  0  0  0  0  0  0  0
    7.1900   47.4030   49.5350 N   0  0  0  0  0  0  0  0  0  0  0  0
    7.4270   48.0130   50.6760 C   0  0  0  0  0  0  0  0  0  0  0  0
    6.5760   48.6300   51.5780 N   0  0  0  0  0  0  0  0  0  0  0  0
    7.0680   49.1930   52.6170 C   0  0  0  0  0  0  0  0  0  0  0  0
    6.1300   49.8850   53.6030 C   0  0  0  0  0  0  0  0  0  0  0  0
    8.5420   49.2120   52.9400 C   0  0  0  0  0  0  0  0  0  0  0  0
    9.3400   48.6140   52.0630 C   0  0  0  0  0  0  0  0  0  0  0  0
   10.8440   48.5560   52.2400 C   0  0  0  0  0  0  0  0  0  0  0  0
    8.7990   47.9930   50.9010 N   0  0  0  0  0  0  0  0  0  0  0  0
    9.4340   47.3680   49.9150 N   0  0  0  0  0  0  0  0  0  0  0  0
    8.3610   48.6500   42.8050 C   0  0  0  0  0  0  0  0  0  0  0  0
    8.4090   47.2180   42.2250 C   0  0  0  0  0  0  0  0  0  0  0  0
    7.0840   47.8170   38.7160 C   0  0  0  0  0  0  0  0  0  0  0  0
    7.4960   46.7100   38.0620 N   0  0  0  0  0  0  0  0  0  0  0  0
    8.1230   45.7380   38.7500 C   0  0  0  0  0  0  0  0  0  0  0  0
    8.4260   45.8550   40.1180 C   0  0  0  0  0  0  0  0  0  0  0  0
    8.0330   47.0100   40.7830 C   0  0  0  0  0  0  0  0  0  0  0  0
    7.3460   47.9900   40.0810 C   0  0  0  0  0  0  0  0  0  0  0  0
    6.3140   50.2120   38.7170 C   0  0  0  0  0  0  0  0  0  0  0  0
    6.3610   48.8950   37.9390 C   0  0  0  0  0  0  0  0  0  0  0  0
    8.5610   44.4960   38.0150 C   0  0  0  0  0  0  0  0  0  0  0  0
    8.5160   43.2870   38.9400 C   0  0  0  0  0  0  0  0  0  0  0  0
  1 26  1  6  0  0  0
  1  9  1  0  0  0  0
  1  2  1  0  0  0  0
  1  8  1  0  0  0  0
  2  3  1  0  0  0  0
  3  4  2  0  0  0  0
  3  5  1  0  0  0  0
  5 14  1  1  0  0  0
  6  5  1  0  0  0  0
  6  7  2  0  0  0  0
  8  6  1  0  0  0  0
  9 13  1  0  0  0  0
 10 11  1  0  0  0  0
 10  9  1  0  0  0  0
 11 12  1  0  0  0  0
 12 13  1  0  0  0  0
 14 15  1  0  0  0  0
 15 16  2  0  0  0  0
 15 25  2  0  0  0  0
 16 17  2  0  0  0  0
 17 24  1  0  0  0  0
 17 18  2  0  0  0  0
 18 19  2  0  0  0  0
 19 21  1  0  0  0  0
 19 20  1  0  0  0  0
 22 23  1  0  0  0  0
 22 21  2  0  0  0  0
 24 22  1  0  0  0  0
 25 24  1  0  0  0  0
 27 26  2  0  0  0  0
 28 33  1  0  0  0  0
 29 28  2  0  0  0  0
 29 30  2  0  0  0  0
 30 31  1  0  0  0  0
 31 32  2  0  0  0  0
 32 27  1  0  0  0  0
 33 32  1  0  0  0  0
 35 28  1  0  0  0  0
 35 34  1  0  0  0  0
 36 30  1  0  0  0  0
 36 37  1  0  0  0  0
M  END
>  <minimizedAffinity>
-10.4148302

$$$$

 OpenBabel12271914573D

 37 41  0  0  1  0  0  0  0  0999 V2000
    8.4830   46.5700   43.8580 C   0  0  2  0  0  0  0  0  0  0  0  0
    9.3770   47.6160   44.3290 O   0  0  0  0  0  0  0  0  0  0  0  0
   10.1900   47.5480   45.4180 C   0  0  0  0  0  0  0  0  0  0  0  0
   11.0080   48.4460   45.5890 O   0  0  0  0  0  0  0  0  0  0  0  0
   10.0340   46.3870   46.2930 C   0  0  1  0  0  0  0  0  0  0  0  0
    9.1590   45.3410   46.0950 C   0  0  0  0  0  0  0  0  0  0  0  0
    8.9900   44.3110   46.7520 O   0  0  0  0  0  0  0  0  0  0  0  0
    8.2410   45.4180   44.8830 C   0  0  0  0  0  0  0  0  0  0  0  0
    9.1440   45.9930   42.6000 C   0  0  0  0  0  0  0  0  0  0  0  0
    9.2980   44.4450   42.5250 C   0  0  0  0  0  0  0  0  0  0  0  0
    8.9900   44.0650   41.0630 C   0  0  0  0  0  0  0  0  0  0  0  0
    9.0210   45.3980   40.3380 C   0  0  0  0  0  0  0  0  0  0  0  0
    8.3270   46.2860   41.3270 C   0  0  0  0  0  0  0  0  0  0  0  0
   10.9390   46.2890   47.5070 C   0  0  0  0  0  0  0  0  0  0  0  0
   10.3310   46.8920   48.7640 C   0  0  0  0  0  0  0  0  0  0  0  0
    8.9830   46.9520   49.0280 N   0  0  0  0  0  0  0  0  0  0  0  0
    8.8890   47.5440   50.1990 C   0  0  0  0  0  0  0  0  0  0  0  0
    7.7880   47.8760   50.9710 N   0  0  0  0  0  0  0  0  0  0  0  0
    7.9640   48.4930   52.0790 C   0  0  0  0  0  0  0  0  0  0  0  0
    6.7490   48.8720   52.9210 C   0  0  0  0  0  0  0  0  0  0  0  0
    9.3210   48.8730   52.6190 C   0  0  0  0  0  0  0  0  0  0  0  0
   10.3640   48.5440   51.8640 C   0  0  0  0  0  0  0  0  0  0  0  0
   11.7900   48.8640   52.2630 C   0  0  0  0  0  0  0  0  0  0  0  0
   10.1730   47.8640   50.6270 N   0  0  0  0  0  0  0  0  0  0  0  0
   11.0820   47.4730   49.7390 N   0  0  0  0  0  0  0  0  0  0  0  0
    7.1720   47.3650   43.5820 C   0  0  0  0  0  0  0  0  0  0  0  0
    7.0530   48.8950   43.7700 C   0  0  0  0  0  0  0  0  0  0  0  0
    6.5270   50.0550   40.1920 C   0  0  0  0  0  0  0  0  0  0  0  0
    6.6190   51.3970   40.3090 N   0  0  0  0  0  0  0  0  0  0  0  0
    6.9260   51.9290   41.5060 C   0  0  0  0  0  0  0  0  0  0  0  0
    7.0950   51.1460   42.6620 C   0  0  0  0  0  0  0  0  0  0  0  0
    6.9650   49.7680   42.5470 C   0  0  0  0  0  0  0  0  0  0  0  0
    6.6930   49.2190   41.3030 C   0  0  0  0  0  0  0  0  0  0  0  0
    7.4400   48.8460   38.1830 C   0  0  0  0  0  0  0  0  0  0  0  0
    6.2020   49.4640   38.8370 C   0  0  0  0  0  0  0  0  0  0  0  0
    7.0470   53.4290   41.6240 C   0  0  0  0  0  0  0  0  0  0  0  0
    8.3970   53.8960   41.0970 C   0  0  0  0  0  0  0  0  0  0  0  0
  1 26  1  6  0  0  0
  1  2  1  0  0  0  0
  1  8  1  0  0  0  0
  2  3  1  0  0  0  0
  3  4  2  0  0  0  0
  3  5  1  0  0  0  0
  5 14  1  6  0  0  0
  6  5  1  0  0  0  0
  6  7  2  0  0  0  0
  8  6  1  0  0  0  0
  9  1  1  0  0  0  0
 10  9  1  0  0  0  0
 11 10  1  0  0  0  0
 12 11  1  0  0  0  0
 12 13  1  0  0  0  0
 13  9  1  0  0  0  0
 14 15  1  0  0  0  0
 15 16  2  0  0  0  0
 15 25  2  0  0  0  0
 16 17  2  0  0  0  0
 17 24  1  0  0  0  0
 17 18  2  0  0  0  0
 18 19  2  0  0  0  0
 19 21  1  0  0  0  0
 19 20  1  0  0  0  0
 22 23  1  0  0  0  0
 22 21  2  0  0  0  0
 24 22  1  0  0  0  0
 25 24  1  0  0  0  0
 26 27  1  0  0  0  0
 28 29  2  0  0  0  0
 28 33  1  0  0  0  0
 29 30  2  0  0  0  0
 30 36  1  0  0  0  0
 30 31  1  0  0  0  0
 32 31  2  0  0  0  0
 32 27  1  0  0  0  0
 33 32  1  0  0  0  0
 34 35  1  0  0  0  0
 35 28  1  0  0  0  0
 37 36  1  0  0  0  0
M  END
>  <minimizedAffinity>
-10.1926394

$$$$

 OpenBabel12271914573D

 37 41  0  0  1  0  0  0  0  0999 V2000
    8.2940   47.2670   45.0110 C   0  0  2  0  0  0  0  0  0  0  0  0
    9.6210   47.3800   45.5960 O   0  0  0  0  0  0  0  0  0  0  0  0
    9.9370   47.2280   46.9100 C   0  0  0  0  0  0  0  0  0  0  0  0
   11.1220   47.1880   47.2220 O   0  0  0  0  0  0  0  0  0  0  0  0
    8.8240   47.1050   47.8500 C   0  0  1  0  0  0  0  0  0  0  0  0
    7.4860   47.0960   47.5190 C   0  0  0  0  0  0  0  0  0  0  0  0
    6.4910   46.9570   48.2350 O   0  0  0  0  0  0  0  0  0  0  0  0
    7.1290   47.2760   46.0500 C   0  0  0  0  0  0  0  0  0  0  0  0
    8.2830   45.9320   44.2560 C   0  0  0  0  0  0  0  0  0  0  0  0
    9.0310   45.8820   42.8910 C   0  0  0  0  0  0  0  0  0  0  0  0
    9.7330   44.5110   42.8510 C   0  0  0  0  0  0  0  0  0  0  0  0
    9.0860   43.7480   43.9920 C   0  0  0  0  0  0  0  0  0  0  0  0
    8.9940   44.8150   45.0420 C   0  0  0  0  0  0  0  0  0  0  0  0
    9.1560   46.9240   49.3200 C   0  0  0  0  0  0  0  0  0  0  0  0
    9.1110   45.4740   49.7760 C   0  0  0  0  0  0  0  0  0  0  0  0
    8.2480   44.9810   50.7250 N   0  0  0  0  0  0  0  0  0  0  0  0
    8.5410   43.7020   50.8230 C   0  0  0  0  0  0  0  0  0  0  0  0
    8.0050   42.6980   51.6130 N   0  0  0  0  0  0  0  0  0  0  0  0
    8.4990   41.5190   51.5460 C   0  0  0  0  0  0  0  0  0  0  0  0
    7.9180   40.4170   52.4280 C   0  0  0  0  0  0  0  0  0  0  0  0
    9.6360   41.1380   50.6290 C   0  0  0  0  0  0  0  0  0  0  0  0
   10.1350   42.1150   49.8790 C   0  0  0  0  0  0  0  0  0  0  0  0
   11.2830   41.8950   48.9160 C   0  0  0  0  0  0  0  0  0  0  0  0
    9.5930   43.4300   49.9560 N   0  0  0  0  0  0  0  0  0  0  0  0
    9.9670   44.5270   49.3030 N   0  0  0  0  0  0  0  0  0  0  0  0
    8.2370   48.5220   44.0900 C   0  0  0  0  0  0  0  0  0  0  0  0
    7.0820   48.7970   43.1010 C   0  0  0  0  0  0  0  0  0  0  0  0
    7.3730   52.5260   42.4440 C   0  0  0  0  0  0  0  0  0  0  0  0
    7.0620   52.6120   41.1330 N   0  0  0  0  0  0  0  0  0  0  0  0
    6.6820   51.5000   40.4770 C   0  0  0  0  0  0  0  0  0  0  0  0
    6.6570   50.2330   41.0870 C   0  0  0  0  0  0  0  0  0  0  0  0
    7.0120   50.1410   42.4270 C   0  0  0  0  0  0  0  0  0  0  0  0
    7.3580   51.2960   43.1130 C   0  0  0  0  0  0  0  0  0  0  0  0
    8.0180   53.5140   44.6660 C   0  0  0  0  0  0  0  0  0  0  0  0
    7.7780   53.7850   43.1790 C   0  0  0  0  0  0  0  0  0  0  0  0
    6.3160   51.6080   39.0180 C   0  0  0  0  0  0  0  0  0  0  0  0
    6.1620   50.2220   38.4040 C   0  0  0  0  0  0  0  0  0  0  0  0
  1 26  1  6  0  0  0
  1  2  1  0  0  0  0
  1  8  1  0  0  0  0
  2  3  1  0  0  0  0
  3  4  2  0  0  0  0
  3  5  1  0  0  0  0
  5 14  1  6  0  0  0
  6  5  1  0  0  0  0
  6  7  2  0  0  0  0
  8  6  1  0  0  0  0
  9  1  1  0  0  0  0
  9 13  1  0  0  0  0
 10  9  1  0  0  0  0
 11 10  1  0  0  0  0
 11 12  1  0  0  0  0
 12 13  1  0  0  0  0
 14 15  1  0  0  0  0
 15 16  2  0  0  0  0
 16 17  2  0  0  0  0
 17 18  2  0  0  0  0
 19 18  2  0  0  0  0
 19 20  1  0  0  0  0
 21 19  1  0  0  0  0
 22 24  1  0  0  0  0
 22 21  2  0  0  0  0
 23 22  1  0  0  0  0
 24 17  1  0  0  0  0
 25 15  2  0  0  0  0
 25 24  1  0  0  0  0
 27 26  2  0  0  0  0
 28 33  1  0  0  0  0
 28 35  1  0  0  0  0
 29 28  2  0  0  0  0
 30 31  1  0  0  0  0
 30 29  2  0  0  0  0
 31 32  1  0  0  0  0
 32 27  1  0  0  0  0
 32 33  2  0  0  0  0
 35 34  1  0  0  0  0
 36 30  1  0  0  0  0
 37 36  1  0  0  0  0
M  END
>  <minimizedAffinity>
-10.1366005

$$$$

 OpenBabel12271914573D

 37 41  0  0  1  0  0  0  0  0999 V2000
    8.3280   49.3980   44.2270 C   0  0  2  0  0  0  0  0  0  0  0  0
    7.2090   48.6460   44.7720 O   0  0  0  0  0  0  0  0  0  0  0  0
    7.2640   47.7420   45.7870 C   0  0  0  0  0  0  0  0  0  0  0  0
    6.2090   47.3160   46.2450 O   0  0  0  0  0  0  0  0  0  0  0  0
    8.5930   47.3640   46.2670 C   0  0  1  0  0  0  0  0  0  0  0  0
    9.7900   47.8650   45.8040 C   0  0  0  0  0  0  0  0  0  0  0  0
   10.9440   47.6360   46.1740 O   0  0  0  0  0  0  0  0  0  0  0  0
    9.7310   48.8700   44.6620 C   0  0  0  0  0  0  0  0  0  0  0  0
    8.1520   50.8350   44.7350 C   0  0  0  0  0  0  0  0  0  0  0  0
    8.1120   51.9660   43.6660 C   0  0  0  0  0  0  0  0  0  0  0  0
    7.0310   52.9550   44.1470 C   0  0  0  0  0  0  0  0  0  0  0  0
    6.7760   52.5300   45.5820 C   0  0  0  0  0  0  0  0  0  0  0  0
    6.8050   51.0360   45.4540 C   0  0  0  0  0  0  0  0  0  0  0  0
    8.6750   46.3640   47.4050 C   0  0  0  0  0  0  0  0  0  0  0  0
    8.4590   46.9890   48.7750 C   0  0  0  0  0  0  0  0  0  0  0  0
    7.2280   47.2910   49.3090 N   0  0  0  0  0  0  0  0  0  0  0  0
    7.4860   47.8120   50.4890 C   0  0  0  0  0  0  0  0  0  0  0  0
    6.6460   48.3000   51.4770 N   0  0  0  0  0  0  0  0  0  0  0  0
    7.1560   48.7970   52.5420 C   0  0  0  0  0  0  0  0  0  0  0  0
    6.2300   49.3470   53.6240 C   0  0  0  0  0  0  0  0  0  0  0  0
    8.6410   48.8700   52.8040 C   0  0  0  0  0  0  0  0  0  0  0  0
    9.4280   48.3960   51.8450 C   0  0  0  0  0  0  0  0  0  0  0  0
   10.9390   48.4070   51.9530 C   0  0  0  0  0  0  0  0  0  0  0  0
    8.8660   47.8490   50.6550 N   0  0  0  0  0  0  0  0  0  0  0  0
    9.4870   47.3480   49.5910 N   0  0  0  0  0  0  0  0  0  0  0  0
    8.1130   49.2320   42.6930 C   0  0  0  0  0  0  0  0  0  0  0  0
    7.0270   48.3180   42.0830 C   0  0  0  0  0  0  0  0  0  0  0  0
    8.1930   45.3260   40.0530 C   0  0  0  0  0  0  0  0  0  0  0  0
    8.2760   44.3590   40.9910 N   0  0  0  0  0  0  0  0  0  0  0  0
    7.8870   44.6320   42.2500 C   0  0  0  0  0  0  0  0  0  0  0  0
    7.4540   45.9100   42.6480 C   0  0  0  0  0  0  0  0  0  0  0  0
    7.4020   46.9140   41.6890 C   0  0  0  0  0  0  0  0  0  0  0  0
    7.7600   46.6170   40.3820 C   0  0  0  0  0  0  0  0  0  0  0  0
    8.6780   43.4930   38.4000 C   0  0  0  0  0  0  0  0  0  0  0  0
    8.6120   45.0040   38.6360 C   0  0  0  0  0  0  0  0  0  0  0  0
    7.9640   43.5400   43.2870 C   0  0  0  0  0  0  0  0  0  0  0  0
    8.8750   43.9580   44.4340 C   0  0  0  0  0  0  0  0  0  0  0  0
  1 26  1  6  0  0  0
  1  8  1  0  0  0  0
  1  9  1  0  0  0  0
  1  2  1  0  0  0  0
  2  3  1  0  0  0  0
  3  4  2  0  0  0  0
  3  5  1  0  0  0  0
  5 14  1  1  0  0  0
  6  7  2  0  0  0  0
  6  5  1  0  0  0  0
  8  6  1  0  0  0  0
  9 13  1  0  0  0  0
 10 11  1  0  0  0  0
 10  9  1  0  0  0  0
 11 12  1  0  0  0  0
 13 12  1  0  0  0  0
 14 15  1  0  0  0  0
 15 16  2  0  0  0  0
 15 25  2  0  0  0  0
 16 17  2  0  0  0  0
 17 24  1  0  0  0  0
 17 18  2  0  0  0  0
 18 19  2  0  0  0  0
 19 21  1  0  0  0  0
 19 20  1  0  0  0  0
 22 23  1  0  0  0  0
 22 21  2  0  0  0  0
 24 22  1  0  0  0  0
 25 24  1  0  0  0  0
 27 26  1  0  0  0  0
 28 33  1  0  0  0  0
 28 29  2  0  0  0  0
 29 30  2  0  0  0  0
 30 31  1  0  0  0  0
 30 36  1  0  0  0  0
 32 27  1  0  0  0  0
 32 31  2  0  0  0  0
 33 32  1  0  0  0  0
 34 35  1  0  0  0  0
 35 28  1  0  0  0  0
 36 37  1  0  0  0  0
M  END
>  <minimizedAffinity>
-10.0367498

$$$$

 OpenBabel12271914573D

 37 41  0  0  1  0  0  0  0  0999 V2000
    8.3590   47.2880   45.1250 C   0  0  2  0  0  0  0  0  0  0  0  0
    9.7100   47.3720   45.6570 O   0  0  0  0  0  0  0  0  0  0  0  0
   10.0730   47.2260   46.9590 C   0  0  0  0  0  0  0  0  0  0  0  0
   11.2680   47.1570   47.2260 O   0  0  0  0  0  0  0  0  0  0  0  0
    8.9950   47.1420   47.9430 C   0  0  1  0  0  0  0  0  0  0  0  0
    7.6450   47.1650   47.6650 C   0  0  0  0  0  0  0  0  0  0  0  0
    6.6760   47.0590   48.4200 O   0  0  0  0  0  0  0  0  0  0  0  0
    7.2360   47.3380   46.2090 C   0  0  0  0  0  0  0  0  0  0  0  0
    8.2840   45.9460   44.3860 C   0  0  0  0  0  0  0  0  0  0  0  0
    8.9880   45.8580   43.0000 C   0  0  0  0  0  0  0  0  0  0  0  0
    9.6470   44.4650   42.9550 C   0  0  0  0  0  0  0  0  0  0  0  0
    9.0110   43.7350   44.1240 C   0  0  0  0  0  0  0  0  0  0  0  0
    8.9840   44.8150   45.1640 C   0  0  0  0  0  0  0  0  0  0  0  0
    9.3790   46.9680   49.4010 C   0  0  0  0  0  0  0  0  0  0  0  0
    9.1200   45.5660   49.9310 C   0  0  0  0  0  0  0  0  0  0  0  0
    9.2920   44.4120   49.2040 N   0  0  0  0  0  0  0  0  0  0  0  0
    8.9580   43.4380   50.0220 C   0  0  0  0  0  0  0  0  0  0  0  0
    8.9330   42.0640   49.8480 N   0  0  0  0  0  0  0  0  0  0  0  0
    8.5260   41.3190   50.8070 C   0  0  0  0  0  0  0  0  0  0  0  0
    8.4850   39.8060   50.6080 C   0  0  0  0  0  0  0  0  0  0  0  0
    8.0830   41.8500   52.1480 C   0  0  0  0  0  0  0  0  0  0  0  0
    8.1160   43.1690   52.2950 C   0  0  0  0  0  0  0  0  0  0  0  0
    7.6940   43.8550   53.5780 C   0  0  0  0  0  0  0  0  0  0  0  0
    8.5600   44.0030   51.2290 N   0  0  0  0  0  0  0  0  0  0  0  0
    8.6460   45.3290   51.1850 N   0  0  0  0  0  0  0  0  0  0  0  0
    8.2990   48.5340   44.1930 C   0  0  0  0  0  0  0  0  0  0  0  0
    7.0920   48.8550   43.2820 C   0  0  0  0  0  0  0  0  0  0  0  0
    6.6890   51.3660   40.4610 C   0  0  0  0  0  0  0  0  0  0  0  0
    6.9330   52.5390   41.0840 N   0  0  0  0  0  0  0  0  0  0  0  0
    7.3030   52.5270   42.3780 C   0  0  0  0  0  0  0  0  0  0  0  0
    7.3850   51.3430   43.1310 C   0  0  0  0  0  0  0  0  0  0  0  0
    7.1000   50.1400   42.4980 C   0  0  0  0  0  0  0  0  0  0  0  0
    6.7630   50.1500   41.1520 C   0  0  0  0  0  0  0  0  0  0  0  0
    6.1620   49.9710   38.4350 C   0  0  0  0  0  0  0  0  0  0  0  0
    6.2950   51.3870   39.0000 C   0  0  0  0  0  0  0  0  0  0  0  0
    7.5930   53.8400   43.0610 C   0  0  0  0  0  0  0  0  0  0  0  0
    8.1610   53.6010   44.4540 C   0  0  0  0  0  0  0  0  0  0  0  0
  1 26  1  6  0  0  0
  1  2  1  0  0  0  0
  1  8  1  0  0  0  0
  2  3  1  0  0  0  0
  3  4  2  0  0  0  0
  3  5  1  0  0  0  0
  5 14  1  6  0  0  0
  6  5  1  0  0  0  0
  6  7  2  0  0  0  0
  8  6  1  0  0  0  0
  9  1  1  0  0  0  0
  9 13  1  0  0  0  0
 10  9  1  0  0  0  0
 11 10  1  0  0  0  0
 11 12  1  0  0  0  0
 12 13  1  0  0  0  0
 14 15  1  0  0  0  0
 15 25  2  0  0  0  0
 16 15  2  0  0  0  0
 16 17  2  0  0  0  0
 17 24  1  0  0  0  0
 18 17  2  0  0  0  0
 18 19  2  0  0  0  0
 19 21  1  0  0  0  0
 20 19  1  0  0  0  0
 21 22  2  0  0  0  0
 22 23  1  0  0  0  0
 24 22  1  0  0  0  0
 25 24  1  0  0  0  0
 27 26  2  0  0  0  0
 28 29  2  0  0  0  0
 28 33  1  0  0  0  0
 29 30  2  0  0  0  0
 30 36  1  0  0  0  0
 30 31  1  0  0  0  0
 32 31  2  0  0  0  0
 32 27  1  0  0  0  0
 33 32  1  0  0  0  0
 34 35  1  0  0  0  0
 35 28  1  0  0  0  0
 36 37  1  0  0  0  0
M  END
>  <minimizedAffinity>
-9.90912151

$$$$
