
 OpenBabel12271915033D

 32 35  0  0  1  0  0  0  0  0999 V2000
    7.4820   46.4150   44.1830 C   0  0  0  0  0  0  0  0  0  0  0  0
    7.4680   47.7460   43.6860 C   0  0  0  0  0  0  0  0  0  0  0  0
    7.7800   48.8090   44.4990 C   0  0  0  0  0  0  0  0  0  0  0  0
    8.0800   48.4920   45.8180 C   0  0  0  0  0  0  0  0  0  0  0  0
    8.0990   47.2690   46.3440 N   0  0  0  0  0  0  0  0  0  0  0  0
    7.8410   46.2280   45.5310 C   0  0  0  0  0  0  0  0  0  0  0  0
    7.7400   50.1770   43.9360 C   0  0  0  0  0  0  0  0  0  0  0  0
    7.9820   51.3320   44.6360 C   0  0  0  0  0  0  0  0  0  0  0  0
    7.9390   52.6250   44.0840 C   0  0  0  0  0  0  0  0  0  0  0  0
    7.6030   52.7130   42.7210 C   0  0  0  0  0  0  0  0  0  0  0  0
    7.4440   53.7940   41.8740 N   0  0  0  0  0  0  0  0  0  0  0  0
    7.5390   54.7580   42.0580 H   0  0  0  0  0  0  0  0  0  0  0  0
    7.1150   53.4200   40.6440 N   0  0  0  0  0  0  0  0  0  0  0  0
    7.0500   52.0730   40.6770 C   0  0  0  0  0  0  0  0  0  0  0  0
    6.7000   51.2940   39.4980 C   0  0  0  0  0  0  0  0  0  0  0  0
    7.3630   51.6190   41.9850 C   0  0  0  0  0  0  0  0  0  0  0  0
    7.4360   50.3210   42.5510 C   0  0  0  0  0  0  0  0  0  0  0  0
    7.0490   45.5190   43.2670 O   0  0  0  0  0  0  0  0  0  0  0  0
    7.8970   44.5040   42.8400 C   0  0  0  0  0  0  0  0  0  0  0  0
    8.9890   45.0150   41.8860 C   0  0  1  0  0  0  0  0  0  0  0  0
   10.3440   44.6310   42.4270 N   0  0  0  0  0  0  0  0  0  0  0  0
   10.5340   45.1090   43.3320 H   0  0  0  0  0  0  0  0  0  0  0  0
   11.1170   44.8610   41.8150 H   0  0  0  0  0  0  0  0  0  0  0  0
   10.3720   43.6130   42.6580 H   0  0  0  0  0  0  0  0  0  0  0  0
    8.8300   44.5410   40.4190 C   0  0  0  0  0  0  0  0  0  0  0  0
    8.1480   45.5360   39.5150 C   0  0  0  0  0  0  0  0  0  0  0  0
    7.8140   46.8030   40.0040 C   0  0  0  0  0  0  0  0  0  0  0  0
    7.1510   47.7270   39.1830 C   0  0  0  0  0  0  0  0  0  0  0  0
    6.8330   47.4100   37.8700 C   0  0  0  0  0  0  0  0  0  0  0  0
    5.9820   48.6500   36.7560 Br  0  0  0  0  0  0  0  0  0  0  0  0
    7.1800   46.1550   37.3830 C   0  0  0  0  0  0  0  0  0  0  0  0
    7.8420   45.2240   38.2100 C   0  0  0  0  0  0  0  0  0  0  0  0
  1  6  1  0  0  0  0
  2  1  2  0  0  0  0
  2  3  1  0  0  0  0
  3  4  2  0  0  0  0
  4  5  1  0  0  0  0
  6  5  2  0  0  0  0
  7  3  1  0  0  0  0
  7  8  2  0  0  0  0
  9  8  1  0  0  0  0
 10  9  2  0  0  0  0
 11 12  1  0  0  0  0
 11 10  1  0  0  0  0
 13 14  2  0  0  0  0
 13 11  1  0  0  0  0
 14 16  1  0  0  0  0
 15 14  1  0  0  0  0
 16 17  2  0  0  0  0
 16 10  1  0  0  0  0
 17  7  1  0  0  0  0
 18  1  1  0  0  0  0
 19 18  1  0  0  0  0
 20 25  1  6  0  0  0
 20 21  1  0  0  0  0
 20 19  1  0  0  0  0
 21 24  1  0  0  0  0
 21 22  1  0  0  0  0
 23 21  1  0  0  0  0
 26 27  1  0  0  0  0
 26 25  1  0  0  0  0
 28 27  2  0  0  0  0
 29 28  1  0  0  0  0
 30 29  1  0  0  0  0
 31 29  2  0  0  0  0
 31 32  1  0  0  0  0
 32 26  2  0  0  0  0
M  END
>  <minimizedAffinity>
-9.14605427

$$$$

 OpenBabel12271915033D

 32 35  0  0  1  0  0  0  0  0999 V2000
    7.4820   46.0430   44.1100 C   0  0  0  0  0  0  0  0  0  0  0  0
    7.3180   47.2370   43.3570 C   0  0  0  0  0  0  0  0  0  0  0  0
    7.6040   48.4650   43.9040 C   0  0  0  0  0  0  0  0  0  0  0  0
    8.0330   48.4510   45.2260 C   0  0  0  0  0  0  0  0  0  0  0  0
    8.1950   47.3690   45.9850 N   0  0  0  0  0  0  0  0  0  0  0  0
    7.9600   46.1660   45.4270 C   0  0  0  0  0  0  0  0  0  0  0  0
    7.4060   49.6790   43.0820 C   0  0  0  0  0  0  0  0  0  0  0  0
    6.9190   49.6990   41.7990 C   0  0  0  0  0  0  0  0  0  0  0  0
    6.7380   50.8630   41.0310 C   0  0  0  0  0  0  0  0  0  0  0  0
    7.1070   52.0770   41.6380 C   0  0  0  0  0  0  0  0  0  0  0  0
    7.0930   53.3820   41.1830 N   0  0  0  0  0  0  0  0  0  0  0  0
    6.8080   53.7430   40.3100 H   0  0  0  0  0  0  0  0  0  0  0  0
    7.5370   54.2350   42.0980 N   0  0  0  0  0  0  0  0  0  0  0  0
    7.8570   53.4840   43.1720 C   0  0  0  0  0  0  0  0  0  0  0  0
    8.3980   54.0760   44.3860 C   0  0  0  0  0  0  0  0  0  0  0  0
    7.5820   52.1200   42.8900 C   0  0  0  0  0  0  0  0  0  0  0  0
    7.7350   50.9390   43.6600 C   0  0  0  0  0  0  0  0  0  0  0  0
    7.0540   44.9500   43.4400 O   0  0  0  0  0  0  0  0  0  0  0  0
    7.9790   44.0850   42.8660 C   0  0  0  0  0  0  0  0  0  0  0  0
    8.8980   44.7950   41.8580 C   0  0  1  0  0  0  0  0  0  0  0  0
   10.3250   44.7070   42.3350 N   0  0  0  0  0  0  0  0  0  0  0  0
   10.4540   45.2270   43.2270 H   0  0  0  0  0  0  0  0  0  0  0  0
   11.0050   45.0820   41.6850 H   0  0  0  0  0  0  0  0  0  0  0  0
   10.5730   43.7190   42.5700 H   0  0  0  0  0  0  0  0  0  0  0  0
    8.7710   44.2760   40.4020 C   0  0  0  0  0  0  0  0  0  0  0  0
    8.1380   45.2540   39.4470 C   0  0  0  0  0  0  0  0  0  0  0  0
    7.9530   46.5850   39.8350 C   0  0  0  0  0  0  0  0  0  0  0  0
    7.3360   47.4980   38.9670 C   0  0  0  0  0  0  0  0  0  0  0  0
    6.9160   47.1050   37.7050 C   0  0  0  0  0  0  0  0  0  0  0  0
    6.1250   48.3240   36.5260 Br  0  0  0  0  0  0  0  0  0  0  0  0
    7.1140   45.7840   37.3160 C   0  0  0  0  0  0  0  0  0  0  0  0
    7.7310   44.8650   38.1910 C   0  0  0  0  0  0  0  0  0  0  0  0
  1  6  2  0  0  0  0
  2  3  2  0  0  0  0
  2  1  1  0  0  0  0
  3  4  1  0  0  0  0
  4  5  2  0  0  0  0
  6  5  1  0  0  0  0
  7 17  1  0  0  0  0
  7  3  1  0  0  0  0
  8  7  2  0  0  0  0
  9 10  2  0  0  0  0
  9  8  1  0  0  0  0
 10 16  1  0  0  0  0
 11 10  1  0  0  0  0
 11 13  1  0  0  0  0
 12 11  1  0  0  0  0
 13 14  2  0  0  0  0
 14 15  1  0  0  0  0
 16 14  1  0  0  0  0
 16 17  2  0  0  0  0
 18  1  1  0  0  0  0
 19 18  1  0  0  0  0
 20 25  1  6  0  0  0
 20 21  1  0  0  0  0
 20 19  1  0  0  0  0
 21 24  1  0  0  0  0
 21 22  1  0  0  0  0
 23 21  1  0  0  0  0
 26 27  1  0  0  0  0
 26 25  1  0  0  0  0
 28 27  2  0  0  0  0
 29 28  1  0  0  0  0
 30 29  1  0  0  0  0
 31 29  2  0  0  0  0
 31 32  1  0  0  0  0
 32 26  2  0  0  0  0
M  END
>  <minimizedAffinity>
-9.13379478

$$$$

 OpenBabel12271915033D

 32 35  0  0  1  0  0  0  0  0999 V2000
    6.8670   47.4030   39.3320 C   0  0  0  0  0  0  0  0  0  0  0  0
    7.0350   48.5500   40.1530 C   0  0  0  0  0  0  0  0  0  0  0  0
    6.7550   49.8080   39.6780 C   0  0  0  0  0  0  0  0  0  0  0  0
    6.3270   49.8730   38.3570 C   0  0  0  0  0  0  0  0  0  0  0  0
    6.1610   48.8380   37.5370 N   0  0  0  0  0  0  0  0  0  0  0  0
    6.3900   47.6040   38.0240 C   0  0  0  0  0  0  0  0  0  0  0  0
    6.9570   50.9720   40.5700 C   0  0  0  0  0  0  0  0  0  0  0  0
    7.0480   52.2790   40.1620 C   0  0  0  0  0  0  0  0  0  0  0  0
    7.2410   53.3730   41.0250 C   0  0  0  0  0  0  0  0  0  0  0  0
    7.3670   53.0760   42.3940 C   0  0  0  0  0  0  0  0  0  0  0  0
    7.5870   53.8780   43.4990 N   0  0  0  0  0  0  0  0  0  0  0  0
    7.7020   54.8560   43.5560 H   0  0  0  0  0  0  0  0  0  0  0  0
    7.6400   53.1740   44.6230 N   0  0  0  0  0  0  0  0  0  0  0  0
    7.4600   51.8880   44.2580 C   0  0  0  0  0  0  0  0  0  0  0  0
    7.4690   50.8060   45.2320 C   0  0  0  0  0  0  0  0  0  0  0  0
    7.2810   51.8200   42.8510 C   0  0  0  0  0  0  0  0  0  0  0  0
    7.0600   50.7310   41.9710 C   0  0  0  0  0  0  0  0  0  0  0  0
    7.2900   46.2700   39.9380 O   0  0  0  0  0  0  0  0  0  0  0  0
    8.6420   46.0980   40.2140 C   0  0  0  0  0  0  0  0  0  0  0  0
    8.9200   45.9640   41.7210 C   0  0  1  0  0  0  0  0  0  0  0  0
   10.1710   45.1480   41.9270 N   0  0  0  0  0  0  0  0  0  0  0  0
   10.0390   44.1710   41.5910 H   0  0  0  0  0  0  0  0  0  0  0  0
   10.4690   45.0800   42.8920 H   0  0  0  0  0  0  0  0  0  0  0  0
   10.9530   45.5210   41.3440 H   0  0  0  0  0  0  0  0  0  0  0  0
    9.0140   47.3150   42.4760 C   0  0  0  0  0  0  0  0  0  0  0  0
    8.5210   47.2670   43.8990 C   0  0  0  0  0  0  0  0  0  0  0  0
    9.4270   47.4080   44.9540 C   0  0  0  0  0  0  0  0  0  0  0  0
    8.9850   47.3340   46.2830 C   0  0  0  0  0  0  0  0  0  0  0  0
    7.6430   47.1390   46.5750 C   0  0  0  0  0  0  0  0  0  0  0  0
    7.0390   47.0750   48.3450 Br  0  0  0  0  0  0  0  0  0  0  0  0
    6.7420   47.0130   45.5230 C   0  0  0  0  0  0  0  0  0  0  0  0
    7.1870   47.0830   44.1870 C   0  0  0  0  0  0  0  0  0  0  0  0
  1 18  1  0  0  0  0
  1  2  2  0  0  0  0
  3  2  1  0  0  0  0
  3  7  1  0  0  0  0
  4  3  2  0  0  0  0
  5  6  2  0  0  0  0
  5  4  1  0  0  0  0
  6  1  1  0  0  0  0
  7 17  1  0  0  0  0
  8  7  2  0  0  0  0
  8  9  1  0  0  0  0
  9 10  2  0  0  0  0
 10 16  1  0  0  0  0
 10 11  1  0  0  0  0
 11 12  1  0  0  0  0
 11 13  1  0  0  0  0
 14 13  2  0  0  0  0
 14 15  1  0  0  0  0
 16 14  1  0  0  0  0
 17 16  2  0  0  0  0
 18 19  1  0  0  0  0
 20 19  1  6  0  0  0
 20 21  1  0  0  0  0
 20 25  1  0  0  0  0
 21 23  1  0  0  0  0
 22 21  1  0  0  0  0
 24 21  1  0  0  0  0
 25 26  1  0  0  0  0
 26 32  2  0  0  0  0
 26 27  1  0  0  0  0
 27 28  2  0  0  0  0
 28 29  1  0  0  0  0
 29 30  1  0  0  0  0
 31 29  2  0  0  0  0
 32 31  1  0  0  0  0
M  END
>  <minimizedAffinity>
-9.13106251

$$$$

 OpenBabel12271915033D

 32 35  0  0  1  0  0  0  0  0999 V2000
    8.9160   46.2060   42.2740 C   0  0  0  0  0  0  0  0  0  0  0  0
    8.2930   47.0520   41.3170 C   0  0  0  0  0  0  0  0  0  0  0  0
    7.9280   46.5750   40.0820 C   0  0  0  0  0  0  0  0  0  0  0  0
    8.2290   45.2410   39.8370 C   0  0  0  0  0  0  0  0  0  0  0  0
    8.8190   44.4030   40.6860 N   0  0  0  0  0  0  0  0  0  0  0  0
    9.1310   44.8640   41.9130 C   0  0  0  0  0  0  0  0  0  0  0  0
    7.2910   47.5000   39.1170 C   0  0  0  0  0  0  0  0  0  0  0  0
    6.8380   48.7620   39.4070 C   0  0  0  0  0  0  0  0  0  0  0  0
    6.2350   49.6280   38.4770 C   0  0  0  0  0  0  0  0  0  0  0  0
    6.0800   49.1320   37.1700 C   0  0  0  0  0  0  0  0  0  0  0  0
    5.5190   49.6810   36.0320 N   0  0  0  0  0  0  0  0  0  0  0  0
    5.1010   50.5640   35.8970 H   0  0  0  0  0  0  0  0  0  0  0  0
    5.5810   48.8530   34.9960 N   0  0  0  0  0  0  0  0  0  0  0  0
    6.1850   47.7380   35.4550 C   0  0  0  0  0  0  0  0  0  0  0  0
    6.4220   46.5860   34.5970 C   0  0  0  0  0  0  0  0  0  0  0  0
    6.5080   47.9090   36.8270 C   0  0  0  0  0  0  0  0  0  0  0  0
    7.1380   47.0590   37.7700 C   0  0  0  0  0  0  0  0  0  0  0  0
    9.2940   46.8770   43.3860 O   0  0  0  0  0  0  0  0  0  0  0  0
    8.6300   46.6530   44.5870 C   0  0  0  0  0  0  0  0  0  0  0  0
    7.4190   47.5820   44.7700 C   0  0  1  0  0  0  0  0  0  0  0  0
    6.3380   46.8510   45.5250 N   0  0  0  0  0  0  0  0  0  0  0  0
    5.9760   46.0450   44.9740 H   0  0  0  0  0  0  0  0  0  0  0  0
    5.5340   47.4210   45.7580 H   0  0  0  0  0  0  0  0  0  0  0  0
    6.7250   46.4200   46.3950 H   0  0  0  0  0  0  0  0  0  0  0  0
    7.7480   48.9350   45.4530 C   0  0  0  0  0  0  0  0  0  0  0  0
    7.6770   50.1270   44.5350 C   0  0  0  0  0  0  0  0  0  0  0  0
    7.7460   51.4190   45.0670 C   0  0  0  0  0  0  0  0  0  0  0  0
    7.6490   52.5380   44.2270 C   0  0  0  0  0  0  0  0  0  0  0  0
    7.5020   52.3860   42.8560 C   0  0  0  0  0  0  0  0  0  0  0  0
    7.4090   53.8720   41.7230 Br  0  0  0  0  0  0  0  0  0  0  0  0
    7.4480   51.1000   42.3290 C   0  0  0  0  0  0  0  0  0  0  0  0
    7.5410   49.9750   43.1740 C   0  0  0  0  0  0  0  0  0  0  0  0
  1 18  1  0  0  0  0
  2  1  2  0  0  0  0
  3  2  1  0  0  0  0
  4  3  2  0  0  0  0
  4  5  1  0  0  0  0
  5  6  2  0  0  0  0
  6  1  1  0  0  0  0
  7  8  1  0  0  0  0
  7  3  1  0  0  0  0
  9  8  2  0  0  0  0
 10  9  1  0  0  0  0
 11 10  1  0  0  0  0
 12 11  1  0  0  0  0
 13 14  2  0  0  0  0
 13 11  1  0  0  0  0
 14 16  1  0  0  0  0
 15 14  1  0  0  0  0
 16 10  2  0  0  0  0
 16 17  1  0  0  0  0
 17  7  2  0  0  0  0
 18 19  1  0  0  0  0
 20 19  1  1  0  0  0
 20 25  1  0  0  0  0
 20 21  1  0  0  0  0
 21 23  1  0  0  0  0
 21 24  1  0  0  0  0
 22 21  1  0  0  0  0
 26 27  1  0  0  0  0
 26 25  1  0  0  0  0
 28 27  2  0  0  0  0
 29 28  1  0  0  0  0
 30 29  1  0  0  0  0
 31 29  2  0  0  0  0
 31 32  1  0  0  0  0
 32 26  2  0  0  0  0
M  END
>  <minimizedAffinity>
-9.12433624

$$$$

 OpenBabel12271915033D

 32 35  0  0  1  0  0  0  0  0999 V2000
    7.3910   46.4560   44.3340 C   0  0  0  0  0  0  0  0  0  0  0  0
    7.0990   47.2600   43.1990 C   0  0  0  0  0  0  0  0  0  0  0  0
    7.2680   48.6230   43.2330 C   0  0  0  0  0  0  0  0  0  0  0  0
    7.7120   49.1450   44.4420 C   0  0  0  0  0  0  0  0  0  0  0  0
    7.9910   48.4480   45.5410 N   0  0  0  0  0  0  0  0  0  0  0  0
    7.8710   47.1080   45.4850 C   0  0  0  0  0  0  0  0  0  0  0  0
    6.9400   49.4150   42.0270 C   0  0  0  0  0  0  0  0  0  0  0  0
    6.3380   48.9270   40.8950 C   0  0  0  0  0  0  0  0  0  0  0  0
    6.0340   49.6950   39.7570 C   0  0  0  0  0  0  0  0  0  0  0  0
    6.4000   51.0530   39.8020 C   0  0  0  0  0  0  0  0  0  0  0  0
    6.2830   52.0740   38.8780 N   0  0  0  0  0  0  0  0  0  0  0  0
    5.9030   52.0620   37.9680 H   0  0  0  0  0  0  0  0  0  0  0  0
    6.7680   53.2210   39.3380 N   0  0  0  0  0  0  0  0  0  0  0  0
    7.2190   52.9540   40.5820 C   0  0  0  0  0  0  0  0  0  0  0  0
    7.8400   53.9790   41.4080 C   0  0  0  0  0  0  0  0  0  0  0  0
    6.9840   51.5870   40.8830 C   0  0  0  0  0  0  0  0  0  0  0  0
    7.2600   50.8040   42.0320 C   0  0  0  0  0  0  0  0  0  0  0  0
    7.0660   45.1580   44.1430 O   0  0  0  0  0  0  0  0  0  0  0  0
    7.5100   44.4950   43.0050 C   0  0  0  0  0  0  0  0  0  0  0  0
    9.0400   44.3370   42.9770 C   0  0  1  0  0  0  0  0  0  0  0  0
    9.3900   42.8720   42.9220 N   0  0  0  0  0  0  0  0  0  0  0  0
    9.0860   42.3820   43.7890 H   0  0  0  0  0  0  0  0  0  0  0  0
   10.3800   42.6830   42.8210 H   0  0  0  0  0  0  0  0  0  0  0  0
    8.8630   42.3970   42.1560 H   0  0  0  0  0  0  0  0  0  0  0  0
    9.7420   45.1130   41.8330 C   0  0  0  0  0  0  0  0  0  0  0  0
    9.0030   45.0870   40.5200 C   0  0  0  0  0  0  0  0  0  0  0  0
    8.5450   46.2810   39.9560 C   0  0  0  0  0  0  0  0  0  0  0  0
    7.8290   46.2670   38.7500 C   0  0  0  0  0  0  0  0  0  0  0  0
    7.5790   45.0740   38.0870 C   0  0  0  0  0  0  0  0  0  0  0  0
    6.6570   45.0490   36.4590 Br  0  0  0  0  0  0  0  0  0  0  0  0
    8.0490   43.8890   38.6440 C   0  0  0  0  0  0  0  0  0  0  0  0
    8.7650   43.9030   39.8580 C   0  0  0  0  0  0  0  0  0  0  0  0
  1  6  2  0  0  0  0
  2  3  2  0  0  0  0
  2  1  1  0  0  0  0
  3  4  1  0  0  0  0
  4  5  2  0  0  0  0
  6  5  1  0  0  0  0
  7 17  1  0  0  0  0
  7  3  1  0  0  0  0
  8  7  2  0  0  0  0
  9 10  2  0  0  0  0
  9  8  1  0  0  0  0
 10 16  1  0  0  0  0
 11 13  1  0  0  0  0
 11 10  1  0  0  0  0
 12 11  1  0  0  0  0
 13 14  2  0  0  0  0
 14 16  1  0  0  0  0
 14 15  1  0  0  0  0
 16 17  2  0  0  0  0
 18  1  1  0  0  0  0
 19 18  1  0  0  0  0
 20 25  1  6  0  0  0
 20 19  1  0  0  0  0
 21 20  1  0  0  0  0
 21 22  1  0  0  0  0
 23 21  1  0  0  0  0
 24 21  1  0  0  0  0
 26 25  1  0  0  0  0
 27 26  1  0  0  0  0
 28 27  2  0  0  0  0
 29 31  2  0  0  0  0
 29 28  1  0  0  0  0
 30 29  1  0  0  0  0
 31 32  1  0  0  0  0
 32 26  2  0  0  0  0
M  END
>  <minimizedAffinity>
-9.02799034

$$$$

 OpenBabel12271915033D

 32 35  0  0  1  0  0  0  0  0999 V2000
    7.9440   46.2530   38.8710 C   0  0  0  0  0  0  0  0  0  0  0  0
    8.2180   46.7530   40.1720 C   0  0  0  0  0  0  0  0  0  0  0  0
    8.6460   45.9180   41.1760 C   0  0  0  0  0  0  0  0  0  0  0  0
    8.7640   44.5760   40.8360 C   0  0  0  0  0  0  0  0  0  0  0  0
    8.5110   44.0470   39.6410 N   0  0  0  0  0  0  0  0  0  0  0  0
    8.1390   44.8770   38.6480 C   0  0  0  0  0  0  0  0  0  0  0  0
    8.9090   46.4870   42.5170 C   0  0  0  0  0  0  0  0  0  0  0  0
    9.0860   47.8190   42.7940 C   0  0  0  0  0  0  0  0  0  0  0  0
    9.3360   48.3430   44.0750 C   0  0  0  0  0  0  0  0  0  0  0  0
    9.4240   47.4110   45.1250 C   0  0  0  0  0  0  0  0  0  0  0  0
    9.6790   47.5600   46.4760 N   0  0  0  0  0  0  0  0  0  0  0  0
    9.8530   48.3780   46.9990 H   0  0  0  0  0  0  0  0  0  0  0  0
    9.6740   46.3960   47.1160 N   0  0  0  0  0  0  0  0  0  0  0  0
    9.4190   45.4640   46.1750 C   0  0  0  0  0  0  0  0  0  0  0  0
    9.3460   44.0470   46.5010 C   0  0  0  0  0  0  0  0  0  0  0  0
    9.2540   46.0990   44.9160 C   0  0  0  0  0  0  0  0  0  0  0  0
    8.9770   45.5900   43.6220 C   0  0  0  0  0  0  0  0  0  0  0  0
    7.4370   47.2010   38.0510 O   0  0  0  0  0  0  0  0  0  0  0  0
    7.9750   48.4840   38.0630 C   0  0  0  0  0  0  0  0  0  0  0  0
    6.9020   49.5690   38.2450 C   0  0  1  0  0  0  0  0  0  0  0  0
    5.9330   49.5120   37.0920 N   0  0  0  0  0  0  0  0  0  0  0  0
    6.4050   49.7500   36.1950 H   0  0  0  0  0  0  0  0  0  0  0  0
    5.1460   50.1440   37.1770 H   0  0  0  0  0  0  0  0  0  0  0  0
    5.5850   48.5360   36.9520 H   0  0  0  0  0  0  0  0  0  0  0  0
    6.1490   49.5020   39.5990 C   0  0  0  0  0  0  0  0  0  0  0  0
    6.6060   50.5170   40.6150 C   0  0  0  0  0  0  0  0  0  0  0  0
    6.7480   50.1440   41.9550 C   0  0  0  0  0  0  0  0  0  0  0  0
    7.1430   51.0860   42.9150 C   0  0  0  0  0  0  0  0  0  0  0  0
    7.4160   52.3980   42.5530 C   0  0  0  0  0  0  0  0  0  0  0  0
    7.9780   53.6530   43.8210 Br  0  0  0  0  0  0  0  0  0  0  0  0
    7.2870   52.7620   41.2170 C   0  0  0  0  0  0  0  0  0  0  0  0
    6.8870   51.8150   40.2520 C   0  0  0  0  0  0  0  0  0  0  0  0
  1  2  1  0  0  0  0
  2  3  2  0  0  0  0
  3  7  1  0  0  0  0
  4  3  1  0  0  0  0
  5  4  2  0  0  0  0
  6  1  2  0  0  0  0
  6  5  1  0  0  0  0
  7  8  2  0  0  0  0
  7 17  1  0  0  0  0
  8  9  1  0  0  0  0
  9 10  2  0  0  0  0
 10 11  1  0  0  0  0
 11 12  1  0  0  0  0
 11 13  1  0  0  0  0
 14 15  1  0  0  0  0
 14 13  2  0  0  0  0
 16 10  1  0  0  0  0
 16 14  1  0  0  0  0
 17 16  2  0  0  0  0
 18 19  1  0  0  0  0
 18  1  1  0  0  0  0
 20 19  1  6  0  0  0
 20 25  1  0  0  0  0
 21 23  1  0  0  0  0
 21 20  1  0  0  0  0
 22 21  1  0  0  0  0
 24 21  1  0  0  0  0
 25 26  1  0  0  0  0
 26 27  1  0  0  0  0
 27 28  2  0  0  0  0
 29 28  1  0  0  0  0
 29 30  1  0  0  0  0
 31 29  2  0  0  0  0
 32 26  2  0  0  0  0
 32 31  1  0  0  0  0
M  END
>  <minimizedAffinity>
-9.00696468

$$$$

 OpenBabel12271915033D

 32 35  0  0  1  0  0  0  0  0999 V2000
    7.8160   45.7910   39.6340 C   0  0  0  0  0  0  0  0  0  0  0  0
    7.6020   47.0690   40.2190 C   0  0  0  0  0  0  0  0  0  0  0  0
    7.1040   48.1120   39.4770 C   0  0  0  0  0  0  0  0  0  0  0  0
    6.8540   47.8360   38.1390 C   0  0  0  0  0  0  0  0  0  0  0  0
    7.0430   46.6660   37.5320 N   0  0  0  0  0  0  0  0  0  0  0  0
    7.4850   45.6340   38.2760 C   0  0  0  0  0  0  0  0  0  0  0  0
    6.9100   49.4260   40.1310 C   0  0  0  0  0  0  0  0  0  0  0  0
    6.4560   50.5630   39.5100 C   0  0  0  0  0  0  0  0  0  0  0  0
    6.2790   51.8040   40.1470 C   0  0  0  0  0  0  0  0  0  0  0  0
    6.6150   51.8610   41.5120 C   0  0  0  0  0  0  0  0  0  0  0  0
    6.5930   52.8960   42.4290 N   0  0  0  0  0  0  0  0  0  0  0  0
    6.3260   53.8370   42.3100 H   0  0  0  0  0  0  0  0  0  0  0  0
    7.0020   52.5060   43.6300 N   0  0  0  0  0  0  0  0  0  0  0  0
    7.3050   51.1980   43.5070 C   0  0  0  0  0  0  0  0  0  0  0  0
    7.8050   50.4180   44.6290 C   0  0  0  0  0  0  0  0  0  0  0  0
    7.0560   50.7820   42.1720 C   0  0  0  0  0  0  0  0  0  0  0  0
    7.2060   49.5310   41.5210 C   0  0  0  0  0  0  0  0  0  0  0  0
    8.4050   44.9260   40.4900 O   0  0  0  0  0  0  0  0  0  0  0  0
    7.9050   44.7810   41.7790 C   0  0  0  0  0  0  0  0  0  0  0  0
    8.9580   45.0930   42.8560 C   0  0  1  0  0  0  0  0  0  0  0  0
   10.3250   44.7230   42.3390 N   0  0  0  0  0  0  0  0  0  0  0  0
   10.4000   43.6970   42.1810 H   0  0  0  0  0  0  0  0  0  0  0  0
   11.0860   44.9720   42.9590 H   0  0  0  0  0  0  0  0  0  0  0  0
   10.4880   45.1440   41.3970 H   0  0  0  0  0  0  0  0  0  0  0  0
    8.9400   46.5590   43.3610 C   0  0  0  0  0  0  0  0  0  0  0  0
    8.6110   46.7070   44.8240 C   0  0  0  0  0  0  0  0  0  0  0  0
    7.2770   46.8070   45.2310 C   0  0  0  0  0  0  0  0  0  0  0  0
    6.9600   46.9760   46.5860 C   0  0  0  0  0  0  0  0  0  0  0  0
    7.9580   47.0300   47.5480 C   0  0  0  0  0  0  0  0  0  0  0  0
    7.5430   47.2190   49.3620 Br  0  0  0  0  0  0  0  0  0  0  0  0
    9.2840   46.9160   47.1420 C   0  0  0  0  0  0  0  0  0  0  0  0
    9.6030   46.7500   45.7780 C   0  0  0  0  0  0  0  0  0  0  0  0
  1  2  1  0  0  0  0
  1 18  1  0  0  0  0
  3  7  1  0  0  0  0
  3  2  2  0  0  0  0
  4  3  1  0  0  0  0
  5  4  2  0  0  0  0
  5  6  1  0  0  0  0
  6  1  2  0  0  0  0
  7 17  1  0  0  0  0
  8  7  2  0  0  0  0
  8  9  1  0  0  0  0
  9 10  2  0  0  0  0
 10 16  1  0  0  0  0
 10 11  1  0  0  0  0
 11 13  1  0  0  0  0
 12 11  1  0  0  0  0
 14 13  2  0  0  0  0
 14 15  1  0  0  0  0
 16 14  1  0  0  0  0
 17 16  2  0  0  0  0
 18 19  1  0  0  0  0
 20 19  1  6  0  0  0
 20 25  1  0  0  0  0
 21 20  1  0  0  0  0
 21 23  1  0  0  0  0
 22 21  1  0  0  0  0
 24 21  1  0  0  0  0
 25 26  1  0  0  0  0
 26 27  2  0  0  0  0
 26 32  1  0  0  0  0
 27 28  1  0  0  0  0
 28 29  2  0  0  0  0
 29 30  1  0  0  0  0
 31 29  1  0  0  0  0
 32 31  2  0  0  0  0
M  END
>  <minimizedAffinity>
-8.67205811

$$$$

 OpenBabel12271915033D

 32 35  0  0  1  0  0  0  0  0999 V2000
    7.2590   46.7210   44.2850 C   0  0  0  0  0  0  0  0  0  0  0  0
    7.1490   48.0180   43.7140 C   0  0  0  0  0  0  0  0  0  0  0  0
    7.1600   48.1950   42.3520 C   0  0  0  0  0  0  0  0  0  0  0  0
    7.3080   47.0400   41.5940 C   0  0  0  0  0  0  0  0  0  0  0  0
    7.4270   45.8020   42.0690 N   0  0  0  0  0  0  0  0  0  0  0  0
    7.3650   45.6300   43.4030 C   0  0  0  0  0  0  0  0  0  0  0  0
    7.0530   49.5670   41.8080 C   0  0  0  0  0  0  0  0  0  0  0  0
    6.6290   49.8900   40.5440 C   0  0  0  0  0  0  0  0  0  0  0  0
    6.5340   51.2010   40.0430 C   0  0  0  0  0  0  0  0  0  0  0  0
    6.9260   52.2340   40.9140 C   0  0  0  0  0  0  0  0  0  0  0  0
    6.9890   53.6060   40.7550 N   0  0  0  0  0  0  0  0  0  0  0  0
    6.7610   54.1610   39.9730 H   0  0  0  0  0  0  0  0  0  0  0  0
    7.4260   54.2150   41.8510 N   0  0  0  0  0  0  0  0  0  0  0  0
    7.6620   53.2340   42.7450 C   0  0  0  0  0  0  0  0  0  0  0  0
    8.1700   53.5190   44.0790 C   0  0  0  0  0  0  0  0  0  0  0  0
    7.3430   51.9790   42.1620 C   0  0  0  0  0  0  0  0  0  0  0  0
    7.4080   50.6540   42.6600 C   0  0  0  0  0  0  0  0  0  0  0  0
    7.3330   46.7570   45.6350 O   0  0  0  0  0  0  0  0  0  0  0  0
    8.5330   47.0910   46.2520 C   0  0  0  0  0  0  0  0  0  0  0  0
    8.5680   46.6710   47.7310 C   0  0  1  0  0  0  0  0  0  0  0  0
    8.2870   45.1940   47.8380 N   0  0  0  0  0  0  0  0  0  0  0  0
    7.3200   44.9740   47.5200 H   0  0  0  0  0  0  0  0  0  0  0  0
    8.3710   44.8210   48.7760 H   0  0  0  0  0  0  0  0  0  0  0  0
    8.9040   44.6550   47.1900 H   0  0  0  0  0  0  0  0  0  0  0  0
    9.8840   47.0350   48.4670 C   0  0  0  0  0  0  0  0  0  0  0  0
    9.6950   47.4650   49.8990 C   0  0  0  0  0  0  0  0  0  0  0  0
   10.8120   47.7080   50.7040 C   0  0  0  0  0  0  0  0  0  0  0  0
   10.6500   48.0790   52.0470 C   0  0  0  0  0  0  0  0  0  0  0  0
    9.3850   48.2280   52.5960 C   0  0  0  0  0  0  0  0  0  0  0  0
    9.1590   48.7570   54.3760 Br  0  0  0  0  0  0  0  0  0  0  0  0
    8.2760   47.9990   51.7880 C   0  0  0  0  0  0  0  0  0  0  0  0
    8.4380   47.6220   50.4390 C   0  0  0  0  0  0  0  0  0  0  0  0
  1 18  1  0  0  0  0
  2  1  1  0  0  0  0
  3  2  2  0  0  0  0
  4  5  2  0  0  0  0
  4  3  1  0  0  0  0
  5  6  1  0  0  0  0
  6  1  2  0  0  0  0
  7  3  1  0  0  0  0
  7 17  2  0  0  0  0
  8  7  1  0  0  0  0
  9  8  2  0  0  0  0
  9 10  1  0  0  0  0
 10 16  2  0  0  0  0
 11 10  1  0  0  0  0
 11 13  1  0  0  0  0
 12 11  1  0  0  0  0
 13 14  2  0  0  0  0
 14 15  1  0  0  0  0
 16 17  1  0  0  0  0
 16 14  1  0  0  0  0
 18 19  1  0  0  0  0
 20 19  1  6  0  0  0
 20 21  1  0  0  0  0
 20 25  1  0  0  0  0
 21 23  1  0  0  0  0
 22 21  1  0  0  0  0
 24 21  1  0  0  0  0
 25 26  1  0  0  0  0
 26 32  2  0  0  0  0
 26 27  1  0  0  0  0
 27 28  2  0  0  0  0
 28 29  1  0  0  0  0
 29 30  1  0  0  0  0
 31 29  2  0  0  0  0
 32 31  1  0  0  0  0
M  END
>  <minimizedAffinity>
-8.65587711

$$$$

 OpenBabel12271915033D

 32 35  0  0  1  0  0  0  0  0999 V2000
    7.4720   45.7630   42.9140 C   0  0  0  0  0  0  0  0  0  0  0  0
    7.3410   47.0300   42.2830 C   0  0  0  0  0  0  0  0  0  0  0  0
    7.3210   48.1890   43.0200 C   0  0  0  0  0  0  0  0  0  0  0  0
    7.4140   48.0310   44.3970 C   0  0  0  0  0  0  0  0  0  0  0  0
    7.5280   46.8740   45.0460 N   0  0  0  0  0  0  0  0  0  0  0  0
    7.5960   45.7450   44.3150 C   0  0  0  0  0  0  0  0  0  0  0  0
    7.1720   49.4830   42.3160 C   0  0  0  0  0  0  0  0  0  0  0  0
    6.7400   49.6380   41.0230 C   0  0  0  0  0  0  0  0  0  0  0  0
    6.6040   50.8750   40.3690 C   0  0  0  0  0  0  0  0  0  0  0  0
    6.9610   52.0170   41.1090 C   0  0  0  0  0  0  0  0  0  0  0  0
    6.9800   53.3610   40.7860 N   0  0  0  0  0  0  0  0  0  0  0  0
    6.7360   53.8110   39.9440 H   0  0  0  0  0  0  0  0  0  0  0  0
    7.3950   54.1120   41.8000 N   0  0  0  0  0  0  0  0  0  0  0  0
    7.6610   53.2520   42.8050 C   0  0  0  0  0  0  0  0  0  0  0  0
    8.1560   53.7120   44.0940 C   0  0  0  0  0  0  0  0  0  0  0  0
    7.3830   51.9270   42.3780 C   0  0  0  0  0  0  0  0  0  0  0  0
    7.4900   50.6740   43.0310 C   0  0  0  0  0  0  0  0  0  0  0  0
    7.3670   44.7390   42.0380 O   0  0  0  0  0  0  0  0  0  0  0  0
    8.5130   44.2110   41.4510 C   0  0  0  0  0  0  0  0  0  0  0  0
    8.1970   43.3590   40.2110 C   0  0  1  0  0  0  0  0  0  0  0  0
    6.7030   43.2110   40.0740 N   0  0  0  0  0  0  0  0  0  0  0  0
    6.3050   42.6770   40.8740 H   0  0  0  0  0  0  0  0  0  0  0  0
    6.4070   42.7290   39.2340 H   0  0  0  0  0  0  0  0  0  0  0  0
    6.2350   44.1440   40.1250 H   0  0  0  0  0  0  0  0  0  0  0  0
    8.8190   43.8920   38.8940 C   0  0  0  0  0  0  0  0  0  0  0  0
    8.1100   45.0860   38.3110 C   0  0  0  0  0  0  0  0  0  0  0  0
    7.1980   44.9110   37.2650 C   0  0  0  0  0  0  0  0  0  0  0  0
    6.5550   46.0180   36.6920 C   0  0  0  0  0  0  0  0  0  0  0  0
    6.7950   47.3010   37.1620 C   0  0  0  0  0  0  0  0  0  0  0  0
    5.9140   48.7790   36.4290 Br  0  0  0  0  0  0  0  0  0  0  0  0
    7.6920   47.4700   38.2120 C   0  0  0  0  0  0  0  0  0  0  0  0
    8.3420   46.3580   38.7850 C   0  0  0  0  0  0  0  0  0  0  0  0
  1  6  1  0  0  0  0
  2  1  2  0  0  0  0
  2  3  1  0  0  0  0
  3  4  2  0  0  0  0
  4  5  1  0  0  0  0
  6  5  2  0  0  0  0
  7  3  1  0  0  0  0
  7 17  2  0  0  0  0
  8  7  1  0  0  0  0
  9  8  2  0  0  0  0
  9 10  1  0  0  0  0
 10 16  2  0  0  0  0
 11 10  1  0  0  0  0
 11 13  1  0  0  0  0
 12 11  1  0  0  0  0
 13 14  2  0  0  0  0
 14 15  1  0  0  0  0
 16 14  1  0  0  0  0
 16 17  1  0  0  0  0
 18  1  1  0  0  0  0
 19 18  1  0  0  0  0
 20 25  1  6  0  0  0
 20 19  1  0  0  0  0
 21 24  1  0  0  0  0
 21 20  1  0  0  0  0
 21 22  1  0  0  0  0
 23 21  1  0  0  0  0
 26 32  1  0  0  0  0
 26 25  1  0  0  0  0
 27 26  2  0  0  0  0
 28 29  2  0  0  0  0
 28 27  1  0  0  0  0
 29 31  1  0  0  0  0
 30 29  1  0  0  0  0
 31 32  2  0  0  0  0
M  END
>  <minimizedAffinity>
-8.61923885

$$$$
