
 OpenBabel12271915083D

 30 33  0  0  1  0  0  0  0  0999 V2000
    6.8020   47.5720   41.1680 C   0  0  1  0  0  0  0  0  0  0  0  0
    7.8120   47.1360   40.2110 N   0  0  0  0  0  0  0  0  0  0  0  0
    8.6550   47.7280   40.2810 H   0  0  0  0  0  0  0  0  0  0  0  0
    8.2300   45.8400   40.5750 O   0  0  0  0  0  0  0  0  0  0  0  0
    7.8890   45.6020   41.9410 C   0  0  2  0  0  0  0  0  0  0  0  0
    9.1730   45.3620   42.7520 C   0  0  1  0  0  0  0  0  0  0  0  0
    9.3250   43.9820   43.3850 C   0  0  2  0  0  0  0  0  0  0  0  0
    8.5150   42.8550   42.7230 C   0  0  1  0  0  0  0  0  0  0  0  0
    7.7730   43.3530   41.4990 C   0  0  2  0  0  0  0  0  0  0  0  0
    7.0150   44.4850   41.9160 O   0  0  0  0  0  0  0  0  0  0  0  0
    7.0940   46.7960   42.4300 C   0  0  0  0  0  0  0  0  0  0  0  0
    6.8750   49.0610   41.3960 C   0  0  0  0  0  0  0  0  0  0  0  0
    6.5040   49.9670   40.4010 C   0  0  0  0  0  0  0  0  0  0  0  0
    6.5500   51.3300   40.5990 C   0  0  0  0  0  0  0  0  0  0  0  0
    6.9970   51.8360   41.8200 C   0  0  0  0  0  0  0  0  0  0  0  0
    7.0540   53.2020   42.0420 C   0  0  0  0  0  0  0  0  0  0  0  0
    7.5120   53.6970   43.2550 C   0  0  0  0  0  0  0  0  0  0  0  0
    7.9010   52.8220   44.2570 C   0  0  0  0  0  0  0  0  0  0  0  0
    7.8420   51.4580   44.0580 C   0  0  0  0  0  0  0  0  0  0  0  0
    7.3950   50.9430   42.8320 C   0  0  0  0  0  0  0  0  0  0  0  0
    7.3300   49.5760   42.6140 C   0  0  0  0  0  0  0  0  0  0  0  0
    8.9880   44.0630   44.7720 O   0  0  0  0  0  0  0  0  0  0  0  0
    9.6630   44.6290   45.2170 H   0  0  0  0  0  0  0  0  0  0  0  0
   10.3460   45.6820   41.9980 O   0  0  0  0  0  0  0  0  0  0  0  0
   10.6120   44.9220   41.4400 H   0  0  0  0  0  0  0  0  0  0  0  0
    9.3650   41.7720   42.3750 O   0  0  0  0  0  0  0  0  0  0  0  0
    9.8300   41.9510   41.5370 H   0  0  0  0  0  0  0  0  0  0  0  0
    6.8650   42.3200   40.8210 C   0  0  0  0  0  0  0  0  0  0  0  0
    7.7180   41.3870   40.1560 O   0  0  0  0  0  0  0  0  0  0  0  0
    8.4580   41.8780   39.7320 H   0  0  0  0  0  0  0  0  0  0  0  0
  1 12  1  1  0  0  0
  1 11  1  0  0  0  0
  2  3  1  0  0  0  0
  2  4  1  0  0  0  0
  2  1  1  0  0  0  0
  4  5  1  0  0  0  0
  5 11  1  1  0  0  0
  6  5  1  6  0  0  0
  6  7  1  0  0  0  0
  7 22  1  1  0  0  0
  8 26  1  6  0  0  0
  8  7  1  0  0  0  0
  9 28  1  1  0  0  0
  9 10  1  0  0  0  0
  9  8  1  0  0  0  0
 10  5  1  0  0  0  0
 12 21  2  0  0  0  0
 13 14  2  0  0  0  0
 13 12  1  0  0  0  0
 14 15  1  0  0  0  0
 15 16  2  0  0  0  0
 15 20  1  0  0  0  0
 16 17  1  0  0  0  0
 17 18  2  0  0  0  0
 19 18  1  0  0  0  0
 20 19  2  0  0  0  0
 21 20  1  0  0  0  0
 22 23  1  0  0  0  0
 24  6  1  0  0  0  0
 25 24  1  0  0  0  0
 27 26  1  0  0  0  0
 29 28  1  0  0  0  0
 30 29  1  0  0  0  0
M  END
>  <minimizedAffinity>
-10.3506985

$$$$

 OpenBabel12271915083D

 30 33  0  0  1  0  0  0  0  0999 V2000
    8.4310   49.9510   44.5790 C   0  0  1  0  0  0  0  0  0  0  0  0
    7.3280   49.6600   45.4870 N   0  0  0  0  0  0  0  0  0  0  0  0
    6.4540   49.5140   44.9570 H   0  0  0  0  0  0  0  0  0  0  0  0
    7.5950   48.4280   46.1190 O   0  0  0  0  0  0  0  0  0  0  0  0
    8.5590   47.7050   45.3530 C   0  0  2  0  0  0  0  0  0  0  0  0
    7.9350   46.3890   44.8600 C   0  0  1  0  0  0  0  0  0  0  0  0
    8.5690   45.1030   45.3820 C   0  0  2  0  0  0  0  0  0  0  0  0
    9.3430   45.2340   46.7040 C   0  0  1  0  0  0  0  0  0  0  0  0
    9.2470   46.6390   47.2650 C   0  0  2  0  0  0  0  0  0  0  0  0
    9.6620   47.5200   46.2250 O   0  0  0  0  0  0  0  0  0  0  0  0
    9.0140   48.6050   44.2220 C   0  0  0  0  0  0  0  0  0  0  0  0
    7.9500   50.6960   43.3590 C   0  0  0  0  0  0  0  0  0  0  0  0
    8.0020   52.0890   43.2920 C   0  0  0  0  0  0  0  0  0  0  0  0
    7.5800   52.7840   42.1780 C   0  0  0  0  0  0  0  0  0  0  0  0
    7.0680   52.0880   41.0830 C   0  0  0  0  0  0  0  0  0  0  0  0
    6.6370   52.7640   39.9530 C   0  0  0  0  0  0  0  0  0  0  0  0
    6.1160   52.0640   38.8740 C   0  0  0  0  0  0  0  0  0  0  0  0
    6.0400   50.6810   38.9170 C   0  0  0  0  0  0  0  0  0  0  0  0
    6.4730   49.9900   40.0300 C   0  0  0  0  0  0  0  0  0  0  0  0
    6.9880   50.6840   41.1350 C   0  0  0  0  0  0  0  0  0  0  0  0
    7.4280   50.0060   42.2610 C   0  0  0  0  0  0  0  0  0  0  0  0
    9.4270   44.5620   44.3760 O   0  0  0  0  0  0  0  0  0  0  0  0
    8.8650   44.2840   43.6130 H   0  0  0  0  0  0  0  0  0  0  0  0
    6.5210   46.3560   45.0780 O   0  0  0  0  0  0  0  0  0  0  0  0
    6.3220   46.0550   45.9890 H   0  0  0  0  0  0  0  0  0  0  0  0
    8.8660   44.2920   47.6540 O   0  0  0  0  0  0  0  0  0  0  0  0
    8.0500   44.6140   48.0820 H   0  0  0  0  0  0  0  0  0  0  0  0
   10.0630   46.8900   48.5380 C   0  0  0  0  0  0  0  0  0  0  0  0
   11.3200   47.4320   48.1290 O   0  0  0  0  0  0  0  0  0  0  0  0
   11.6270   46.9540   47.3260 H   0  0  0  0  0  0  0  0  0  0  0  0
  1 12  1  6  0  0  0
  1  2  1  0  0  0  0
  2  4  1  0  0  0  0
  3  2  1  0  0  0  0
  5 11  1  6  0  0  0
  5  4  1  0  0  0  0
  5 10  1  0  0  0  0
  6 24  1  0  0  0  0
  6  5  1  1  0  0  0
  6  7  1  0  0  0  0
  7 22  1  6  0  0  0
  7  8  1  0  0  0  0
  8  9  1  0  0  0  0
  8 26  1  1  0  0  0
  9 28  1  1  0  0  0
 10  9  1  0  0  0  0
 11  1  1  0  0  0  0
 13 12  1  0  0  0  0
 14 13  2  0  0  0  0
 15 20  1  0  0  0  0
 15 14  1  0  0  0  0
 16 15  2  0  0  0  0
 17 18  2  0  0  0  0
 17 16  1  0  0  0  0
 18 19  1  0  0  0  0
 19 20  2  0  0  0  0
 20 21  1  0  0  0  0
 21 12  2  0  0  0  0
 23 22  1  0  0  0  0
 24 25  1  0  0  0  0
 26 27  1  0  0  0  0
 29 28  1  0  0  0  0
 30 29  1  0  0  0  0
M  END
>  <minimizedAffinity>
-10.119997

$$$$

 OpenBabel12271915083D

 30 33  0  0  1  0  0  0  0  0999 V2000
    8.2080   47.1860   45.1210 C   0  0  1  0  0  0  0  0  0  0  0  0
    9.5990   46.7740   44.9740 N   0  0  0  0  0  0  0  0  0  0  0  0
   10.2120   47.6000   44.8880 H   0  0  0  0  0  0  0  0  0  0  0  0
    9.9940   46.1350   46.1670 O   0  0  0  0  0  0  0  0  0  0  0  0
    9.1020   46.5060   47.2170 C   0  0  2  0  0  0  0  0  0  0  0  0
    9.8870   47.2470   48.3140 C   0  0  1  0  0  0  0  0  0  0  0  0
    9.9380   46.5720   49.6810 C   0  0  2  0  0  0  0  0  0  0  0  0
    9.7080   45.0520   49.6800 C   0  0  1  0  0  0  0  0  0  0  0  0
    9.5490   44.5170   48.2720 C   0  0  2  0  0  0  0  0  0  0  0  0
    8.5210   45.2890   47.6580 O   0  0  0  0  0  0  0  0  0  0  0  0
    7.9990   47.3470   46.6080 C   0  0  0  0  0  0  0  0  0  0  0  0
    7.9390   48.4690   44.3750 C   0  0  0  0  0  0  0  0  0  0  0  0
    7.6770   48.4700   43.0040 C   0  0  0  0  0  0  0  0  0  0  0  0
    7.4140   49.6320   42.3100 C   0  0  0  0  0  0  0  0  0  0  0  0
    7.4230   50.8550   42.9820 C   0  0  0  0  0  0  0  0  0  0  0  0
    7.1640   52.0360   42.3070 C   0  0  0  0  0  0  0  0  0  0  0  0
    7.1880   53.2490   42.9810 C   0  0  0  0  0  0  0  0  0  0  0  0
    7.4580   53.2810   44.3400 C   0  0  0  0  0  0  0  0  0  0  0  0
    7.7100   52.1140   45.0320 C   0  0  0  0  0  0  0  0  0  0  0  0
    7.7030   50.8810   44.3610 C   0  0  0  0  0  0  0  0  0  0  0  0
    7.9540   49.6990   45.0400 C   0  0  0  0  0  0  0  0  0  0  0  0
    8.9910   47.1990   50.5490 O   0  0  0  0  0  0  0  0  0  0  0  0
    9.2900   48.1270   50.7050 H   0  0  0  0  0  0  0  0  0  0  0  0
   11.2110   47.5800   47.8870 O   0  0  0  0  0  0  0  0  0  0  0  0
   11.8170   46.8240   48.0290 H   0  0  0  0  0  0  0  0  0  0  0  0
   10.7780   44.3880   50.3400 O   0  0  0  0  0  0  0  0  0  0  0  0
   11.5440   44.2880   49.7440 H   0  0  0  0  0  0  0  0  0  0  0  0
    9.2270   43.0210   48.1740 C   0  0  0  0  0  0  0  0  0  0  0  0
    8.7740   42.7770   46.8420 O   0  0  0  0  0  0  0  0  0  0  0  0
    8.1890   43.5180   46.5640 H   0  0  0  0  0  0  0  0  0  0  0  0
  1 12  1  6  0  0  0
  1 11  1  0  0  0  0
  2  1  1  0  0  0  0
  2  4  1  0  0  0  0
  3  2  1  0  0  0  0
  4  5  1  0  0  0  0
  5 11  1  6  0  0  0
  5 10  1  0  0  0  0
  6  5  1  6  0  0  0
  6  7  1  0  0  0  0
  7 22  1  1  0  0  0
  8  7  1  0  0  0  0
  8 26  1  6  0  0  0
  9 28  1  1  0  0  0
  9  8  1  0  0  0  0
 10  9  1  0  0  0  0
 12 21  1  0  0  0  0
 13 12  2  0  0  0  0
 14 15  2  0  0  0  0
 14 13  1  0  0  0  0
 15 20  1  0  0  0  0
 16 17  2  0  0  0  0
 16 15  1  0  0  0  0
 17 18  1  0  0  0  0
 18 19  2  0  0  0  0
 20 19  1  0  0  0  0
 20 21  2  0  0  0  0
 22 23  1  0  0  0  0
 24 25  1  0  0  0  0
 24  6  1  0  0  0  0
 27 26  1  0  0  0  0
 29 28  1  0  0  0  0
 30 29  1  0  0  0  0
M  END
>  <minimizedAffinity>
-9.70829868

$$$$

 OpenBabel12271915083D

 30 33  0  0  1  0  0  0  0  0999 V2000
    8.0150   48.1170   44.2680 C   0  0  1  0  0  0  0  0  0  0  0  0
    9.3500   47.6890   43.8680 N   0  0  0  0  0  0  0  0  0  0  0  0
   10.0270   48.4590   43.9910 H   0  0  0  0  0  0  0  0  0  0  0  0
    9.7680   46.6750   44.7540 O   0  0  0  0  0  0  0  0  0  0  0  0
    8.9870   46.7410   45.9470 C   0  0  2  0  0  0  0  0  0  0  0  0
    9.9080   47.0370   47.1430 C   0  0  1  0  0  0  0  0  0  0  0  0
    9.9940   45.9540   48.2150 C   0  0  2  0  0  0  0  0  0  0  0  0
    9.6300   44.5340   47.7530 C   0  0  1  0  0  0  0  0  0  0  0  0
    9.3270   44.4940   46.2690 C   0  0  2  0  0  0  0  0  0  0  0  0
    8.3320   45.4850   46.0310 O   0  0  0  0  0  0  0  0  0  0  0  0
    7.9240   47.8010   45.7420 C   0  0  0  0  0  0  0  0  0  0  0  0
    7.8090   49.5860   43.9960 C   0  0  0  0  0  0  0  0  0  0  0  0
    7.6750   50.5050   45.0390 C   0  0  0  0  0  0  0  0  0  0  0  0
    7.5020   51.8530   44.8080 C   0  0  0  0  0  0  0  0  0  0  0  0
    7.4390   52.3270   43.4970 C   0  0  0  0  0  0  0  0  0  0  0  0
    7.2640   53.6760   43.2400 C   0  0  0  0  0  0  0  0  0  0  0  0
    7.1900   54.1370   41.9330 C   0  0  0  0  0  0  0  0  0  0  0  0
    7.3050   53.2460   40.8770 C   0  0  0  0  0  0  0  0  0  0  0  0
    7.4890   51.8990   41.1140 C   0  0  0  0  0  0  0  0  0  0  0  0
    7.5530   51.4170   42.4290 C   0  0  0  0  0  0  0  0  0  0  0  0
    7.7370   50.0670   42.6860 C   0  0  0  0  0  0  0  0  0  0  0  0
    9.1690   46.3250   49.3210 O   0  0  0  0  0  0  0  0  0  0  0  0
    9.5580   47.1320   49.7350 H   0  0  0  0  0  0  0  0  0  0  0  0
   11.2240   47.4080   46.7210 O   0  0  0  0  0  0  0  0  0  0  0  0
   11.7690   46.6110   46.5590 H   0  0  0  0  0  0  0  0  0  0  0  0
   10.6800   43.6270   48.0650 O   0  0  0  0  0  0  0  0  0  0  0  0
   11.3910   43.6790   47.3990 H   0  0  0  0  0  0  0  0  0  0  0  0
    8.8680   43.1330   45.7330 C   0  0  0  0  0  0  0  0  0  0  0  0
    8.5480   42.3240   46.8660 O   0  0  0  0  0  0  0  0  0  0  0  0
    9.2220   42.4760   47.5670 H   0  0  0  0  0  0  0  0  0  0  0  0
  1 12  1  1  0  0  0
  1 11  1  0  0  0  0
  2  3  1  0  0  0  0
  2  1  1  0  0  0  0
  2  4  1  0  0  0  0
  4  5  1  0  0  0  0
  5 11  1  6  0  0  0
  5 10  1  0  0  0  0
  6  5  1  6  0  0  0
  6  7  1  0  0  0  0
  7 22  1  1  0  0  0
  8 26  1  6  0  0  0
  8  7  1  0  0  0  0
  9 28  1  1  0  0  0
  9  8  1  0  0  0  0
 10  9  1  0  0  0  0
 12 13  2  0  0  0  0
 14 13  1  0  0  0  0
 15 14  2  0  0  0  0
 16 15  1  0  0  0  0
 17 16  2  0  0  0  0
 18 19  2  0  0  0  0
 18 17  1  0  0  0  0
 19 20  1  0  0  0  0
 20 21  2  0  0  0  0
 20 15  1  0  0  0  0
 21 12  1  0  0  0  0
 22 23  1  0  0  0  0
 24  6  1  0  0  0  0
 25 24  1  0  0  0  0
 27 26  1  0  0  0  0
 28 29  1  0  0  0  0
 29 30  1  0  0  0  0
M  END
>  <minimizedAffinity>
-9.62448406

$$$$

 OpenBabel12271915083D

 30 33  0  0  1  0  0  0  0  0999 V2000
    8.6990   46.5140   43.1850 C   0  0  1  0  0  0  0  0  0  0  0  0
    9.5050   47.6020   43.7260 N   0  0  0  0  0  0  0  0  0  0  0  0
    9.1900   48.5080   43.3440 H   0  0  0  0  0  0  0  0  0  0  0  0
    9.2660   47.6760   45.1140 O   0  0  0  0  0  0  0  0  0  0  0  0
    8.0390   47.0110   45.4160 C   0  0  2  0  0  0  0  0  0  0  0  0
    7.0470   48.0220   46.0160 C   0  0  1  0  0  0  0  0  0  0  0  0
    6.6100   47.7670   47.4550 C   0  0  2  0  0  0  0  0  0  0  0  0
    7.5720   46.9160   48.3000 C   0  0  1  0  0  0  0  0  0  0  0  0
    8.8250   46.5630   47.5250 C   0  0  2  0  0  0  0  0  0  0  0  0
    8.3930   45.9650   46.3060 O   0  0  0  0  0  0  0  0  0  0  0  0
    7.5350   46.3750   44.1370 C   0  0  0  0  0  0  0  0  0  0  0  0
    8.2420   46.8210   41.7810 C   0  0  0  0  0  0  0  0  0  0  0  0
    8.4330   45.9110   40.7400 C   0  0  0  0  0  0  0  0  0  0  0  0
    8.0080   46.1700   39.4550 C   0  0  0  0  0  0  0  0  0  0  0  0
    7.3800   47.3820   39.1660 C   0  0  0  0  0  0  0  0  0  0  0  0
    6.9450   47.6660   37.8820 C   0  0  0  0  0  0  0  0  0  0  0  0
    6.3340   48.8800   37.6000 C   0  0  0  0  0  0  0  0  0  0  0  0
    6.1430   49.8090   38.6100 C   0  0  0  0  0  0  0  0  0  0  0  0
    6.5610   49.5410   39.8980 C   0  0  0  0  0  0  0  0  0  0  0  0
    7.1930   48.3240   40.1950 C   0  0  0  0  0  0  0  0  0  0  0  0
    7.6200   48.0370   41.4820 C   0  0  0  0  0  0  0  0  0  0  0  0
    5.3140   47.1640   47.4510 O   0  0  0  0  0  0  0  0  0  0  0  0
    4.6720   47.8250   47.0970 H   0  0  0  0  0  0  0  0  0  0  0  0
    7.5130   49.3690   45.8810 O   0  0  0  0  0  0  0  0  0  0  0  0
    8.1180   49.5970   46.6170 H   0  0  0  0  0  0  0  0  0  0  0  0
    7.9130   47.5970   49.5000 O   0  0  0  0  0  0  0  0  0  0  0  0
    8.6130   48.2560   49.3380 H   0  0  0  0  0  0  0  0  0  0  0  0
    9.8070   45.6400   48.2560 C   0  0  0  0  0  0  0  0  0  0  0  0
   10.7200   46.4790   48.9650 O   0  0  0  0  0  0  0  0  0  0  0  0
   10.9570   47.2450   48.3950 H   0  0  0  0  0  0  0  0  0  0  0  0
  1 12  1  6  0  0  0
  1  2  1  0  0  0  0
  1 11  1  0  0  0  0
  2  4  1  0  0  0  0
  3  2  1  0  0  0  0
  4  5  1  0  0  0  0
  5 11  1  6  0  0  0
  5 10  1  0  0  0  0
  6  5  1  1  0  0  0
  6  7  1  0  0  0  0
  7 22  1  6  0  0  0
  7  8  1  0  0  0  0
  8 26  1  1  0  0  0
  9 28  1  1  0  0  0
  9  8  1  0  0  0  0
 10  9  1  0  0  0  0
 13 12  2  0  0  0  0
 14 13  1  0  0  0  0
 15 14  2  0  0  0  0
 15 20  1  0  0  0  0
 16 15  1  0  0  0  0
 17 16  2  0  0  0  0
 17 18  1  0  0  0  0
 18 19  2  0  0  0  0
 19 20  1  0  0  0  0
 20 21  2  0  0  0  0
 21 12  1  0  0  0  0
 23 22  1  0  0  0  0
 24  6  1  0  0  0  0
 24 25  1  0  0  0  0
 27 26  1  0  0  0  0
 28 29  1  0  0  0  0
 30 29  1  0  0  0  0
M  END
>  <minimizedAffinity>
-9.58037853

$$$$

 OpenBabel12271915083D

 30 33  0  0  1  0  0  0  0  0999 V2000
    6.5650   49.5440   39.1270 C   0  0  1  0  0  0  0  0  0  0  0  0
    7.7610   49.6130   38.2950 N   0  0  0  0  0  0  0  0  0  0  0  0
    8.6100   49.5390   38.8770 H   0  0  0  0  0  0  0  0  0  0  0  0
    7.7780   48.4780   37.4580 O   0  0  0  0  0  0  0  0  0  0  0  0
    6.9240   47.4760   38.0070 C   0  0  2  0  0  0  0  0  0  0  0  0
    7.7560   46.2280   38.3490 C   0  0  1  0  0  0  0  0  0  0  0  0
    7.4170   44.9570   37.5770 C   0  0  2  0  0  0  0  0  0  0  0  0
    6.7190   45.1690   36.2230 C   0  0  1  0  0  0  0  0  0  0  0  0
    6.5790   46.6420   35.8970 C   0  0  2  0  0  0  0  0  0  0  0  0
    5.9360   47.2460   37.0160 O   0  0  0  0  0  0  0  0  0  0  0  0
    6.2310   48.0740   39.2150 C   0  0  0  0  0  0  0  0  0  0  0  0
    6.8130   50.1450   40.4870 C   0  0  0  0  0  0  0  0  0  0  0  0
    6.8110   49.3570   41.6400 C   0  0  0  0  0  0  0  0  0  0  0  0
    7.0510   49.8880   42.8890 C   0  0  0  0  0  0  0  0  0  0  0  0
    7.2870   51.2570   43.0240 C   0  0  0  0  0  0  0  0  0  0  0  0
    7.5290   51.8140   44.2690 C   0  0  0  0  0  0  0  0  0  0  0  0
    7.7500   53.1780   44.3960 C   0  0  0  0  0  0  0  0  0  0  0  0
    7.7450   53.9880   43.2710 C   0  0  0  0  0  0  0  0  0  0  0  0
    7.5150   53.4500   42.0210 C   0  0  0  0  0  0  0  0  0  0  0  0
    7.2760   52.0750   41.8790 C   0  0  0  0  0  0  0  0  0  0  0  0
    7.0430   51.5170   40.6320 C   0  0  0  0  0  0  0  0  0  0  0  0
    6.6160   44.1080   38.4010 O   0  0  0  0  0  0  0  0  0  0  0  0
    7.1700   43.8110   39.1620 H   0  0  0  0  0  0  0  0  0  0  0  0
    9.1610   46.4880   38.2650 O   0  0  0  0  0  0  0  0  0  0  0  0
    9.4730   46.3860   37.3420 H   0  0  0  0  0  0  0  0  0  0  0  0
    7.4310   44.5020   35.1890 O   0  0  0  0  0  0  0  0  0  0  0  0
    8.1950   45.0330   34.8960 H   0  0  0  0  0  0  0  0  0  0  0  0
    5.8150   46.9540   34.6050 C   0  0  0  0  0  0  0  0  0  0  0  0
    6.7850   47.0760   33.5640 O   0  0  0  0  0  0  0  0  0  0  0  0
    7.5650   47.5650   33.9120 H   0  0  0  0  0  0  0  0  0  0  0  0
  1 11  1  0  0  0  0
  1 12  1  1  0  0  0
  2  3  1  0  0  0  0
  2  1  1  0  0  0  0
  4  5  1  0  0  0  0
  4  2  1  0  0  0  0
  5 11  1  1  0  0  0
  6  5  1  6  0  0  0
  7  6  1  0  0  0  0
  7 22  1  1  0  0  0
  8 26  1  6  0  0  0
  8  7  1  0  0  0  0
  9 28  1  6  0  0  0
  9  8  1  0  0  0  0
  9 10  1  0  0  0  0
 10  5  1  0  0  0  0
 12 21  2  0  0  0  0
 12 13  1  0  0  0  0
 13 14  2  0  0  0  0
 14 15  1  0  0  0  0
 15 16  2  0  0  0  0
 16 17  1  0  0  0  0
 18 17  2  0  0  0  0
 19 18  1  0  0  0  0
 20 19  2  0  0  0  0
 20 15  1  0  0  0  0
 21 20  1  0  0  0  0
 22 23  1  0  0  0  0
 24  6  1  0  0  0  0
 25 24  1  0  0  0  0
 27 26  1  0  0  0  0
 29 30  1  0  0  0  0
 29 28  1  0  0  0  0
M  END
>  <minimizedAffinity>
-9.56477737

$$$$

 OpenBabel12271915083D

 30 33  0  0  1  0  0  0  0  0999 V2000
    8.1060   47.0230   45.2670 C   0  0  1  0  0  0  0  0  0  0  0  0
    9.4470   46.4800   45.0900 N   0  0  0  0  0  0  0  0  0  0  0  0
   10.1150   47.2360   44.8720 H   0  0  0  0  0  0  0  0  0  0  0  0
    9.8710   45.9480   46.3250 O   0  0  0  0  0  0  0  0  0  0  0  0
    9.0830   46.5090   47.3740 C   0  0  2  0  0  0  0  0  0  0  0  0
    9.9950   47.3000   48.3290 C   0  0  1  0  0  0  0  0  0  0  0  0
   10.0860   46.7810   49.7610 C   0  0  2  0  0  0  0  0  0  0  0  0
    9.7390   45.2960   49.9520 C   0  0  1  0  0  0  0  0  0  0  0  0
    9.4450   44.6210   48.6280 C   0  0  2  0  0  0  0  0  0  0  0  0
    8.4410   45.4030   47.9880 O   0  0  0  0  0  0  0  0  0  0  0  0
    8.0100   47.3670   46.7350 C   0  0  0  0  0  0  0  0  0  0  0  0
    7.8870   48.2320   44.3930 C   0  0  0  0  0  0  0  0  0  0  0  0
    8.3050   49.5020   44.7930 C   0  0  0  0  0  0  0  0  0  0  0  0
    8.1260   50.6150   43.9990 C   0  0  0  0  0  0  0  0  0  0  0  0
    7.4930   50.4860   42.7620 C   0  0  0  0  0  0  0  0  0  0  0  0
    7.3000   51.5900   41.9480 C   0  0  0  0  0  0  0  0  0  0  0  0
    6.6580   51.4550   40.7250 C   0  0  0  0  0  0  0  0  0  0  0  0
    6.2190   50.2090   40.3070 C   0  0  0  0  0  0  0  0  0  0  0  0
    6.4100   49.0960   41.1010 C   0  0  0  0  0  0  0  0  0  0  0  0
    7.0450   49.2190   42.3460 C   0  0  0  0  0  0  0  0  0  0  0  0
    7.2460   48.1130   43.1560 C   0  0  0  0  0  0  0  0  0  0  0  0
    9.2510   47.5800   50.6020 O   0  0  0  0  0  0  0  0  0  0  0  0
    9.6300   48.4910   50.6300 H   0  0  0  0  0  0  0  0  0  0  0  0
   11.3090   47.4700   47.7890 O   0  0  0  0  0  0  0  0  0  0  0  0
   11.8630   46.6860   47.9840 H   0  0  0  0  0  0  0  0  0  0  0  0
   10.7960   44.6220   50.6220 O   0  0  0  0  0  0  0  0  0  0  0  0
   11.5100   44.3920   49.9990 H   0  0  0  0  0  0  0  0  0  0  0  0
    9.0020   43.1560   48.7260 C   0  0  0  0  0  0  0  0  0  0  0  0
    8.6400   42.7400   47.4080 O   0  0  0  0  0  0  0  0  0  0  0  0
    8.1470   43.4690   46.9680 H   0  0  0  0  0  0  0  0  0  0  0  0
  1 12  1  6  0  0  0
  1 11  1  0  0  0  0
  2  1  1  0  0  0  0
  2  4  1  0  0  0  0
  3  2  1  0  0  0  0
  4  5  1  0  0  0  0
  5 11  1  6  0  0  0
  5 10  1  0  0  0  0
  6  5  1  6  0  0  0
  6  7  1  0  0  0  0
  7  8  1  0  0  0  0
  7 22  1  1  0  0  0
  8 26  1  6  0  0  0
  9 28  1  1  0  0  0
  9  8  1  0  0  0  0
 10  9  1  0  0  0  0
 12 13  1  0  0  0  0
 14 13  2  0  0  0  0
 15 14  1  0  0  0  0
 16 15  2  0  0  0  0
 17 16  1  0  0  0  0
 18 17  2  0  0  0  0
 18 19  1  0  0  0  0
 19 20  2  0  0  0  0
 20 15  1  0  0  0  0
 20 21  1  0  0  0  0
 21 12  2  0  0  0  0
 22 23  1  0  0  0  0
 24 25  1  0  0  0  0
 24  6  1  0  0  0  0
 27 26  1  0  0  0  0
 29 28  1  0  0  0  0
 30 29  1  0  0  0  0
M  END
>  <minimizedAffinity>
-9.43769836

$$$$

 OpenBabel12271915083D

 30 33  0  0  1  0  0  0  0  0999 V2000
    8.1180   46.4940   46.0250 C   0  0  1  0  0  0  0  0  0  0  0  0
    9.4200   45.8650   45.8390 N   0  0  0  0  0  0  0  0  0  0  0  0
   10.0720   46.5170   45.3740 H   0  0  0  0  0  0  0  0  0  0  0  0
    9.9750   45.6230   47.1130 O   0  0  0  0  0  0  0  0  0  0  0  0
    9.3240   46.4510   48.0750 C   0  0  2  0  0  0  0  0  0  0  0  0
   10.3530   47.4040   48.7060 C   0  0  1  0  0  0  0  0  0  0  0  0
   10.6010   47.2360   50.2030 C   0  0  2  0  0  0  0  0  0  0  0  0
   10.2520   45.8560   50.7820 C   0  0  1  0  0  0  0  0  0  0  0  0
    9.7940   44.9000   49.6990 C   0  0  2  0  0  0  0  0  0  0  0  0
    8.7370   45.5530   49.0020 O   0  0  0  0  0  0  0  0  0  0  0  0
    8.1990   47.1800   47.3680 C   0  0  0  0  0  0  0  0  0  0  0  0
    7.8210   47.4700   44.9140 C   0  0  0  0  0  0  0  0  0  0  0  0
    7.4000   47.0320   43.6570 C   0  0  0  0  0  0  0  0  0  0  0  0
    7.1100   47.9110   42.6350 C   0  0  0  0  0  0  0  0  0  0  0  0
    7.2530   49.2830   42.8440 C   0  0  0  0  0  0  0  0  0  0  0  0
    6.9690   50.1860   41.8330 C   0  0  0  0  0  0  0  0  0  0  0  0
    7.1260   51.5490   42.0450 C   0  0  0  0  0  0  0  0  0  0  0  0
    7.5560   52.0120   43.2780 C   0  0  0  0  0  0  0  0  0  0  0  0
    7.8350   51.1290   44.3000 C   0  0  0  0  0  0  0  0  0  0  0  0
    7.6940   49.7480   44.0970 C   0  0  0  0  0  0  0  0  0  0  0  0
    7.9690   48.8460   45.1120 C   0  0  0  0  0  0  0  0  0  0  0  0
    9.8830   48.2490   50.9120 O   0  0  0  0  0  0  0  0  0  0  0  0
   10.2790   49.1230   50.6790 H   0  0  0  0  0  0  0  0  0  0  0  0
   11.5990   47.3820   48.0030 O   0  0  0  0  0  0  0  0  0  0  0  0
   12.1580   46.6430   48.3200 H   0  0  0  0  0  0  0  0  0  0  0  0
   11.3680   45.3140   51.4760 O   0  0  0  0  0  0  0  0  0  0  0  0
   12.0000   44.9100   50.8540 H   0  0  0  0  0  0  0  0  0  0  0  0
    9.3400   43.5220   50.1950 C   0  0  0  0  0  0  0  0  0  0  0  0
    8.9270   43.6810   51.5530 O   0  0  0  0  0  0  0  0  0  0  0  0
    9.5580   44.2850   52.0080 H   0  0  0  0  0  0  0  0  0  0  0  0
  1 12  1  6  0  0  0
  1 11  1  0  0  0  0
  2  1  1  0  0  0  0
  2  4  1  0  0  0  0
  3  2  1  0  0  0  0
  4  5  1  0  0  0  0
  5 11  1  6  0  0  0
  5 10  1  0  0  0  0
  6  5  1  6  0  0  0
  6  7  1  0  0  0  0
  7  8  1  0  0  0  0
  7 22  1  1  0  0  0
  8 26  1  6  0  0  0
  9 28  1  1  0  0  0
  9  8  1  0  0  0  0
 10  9  1  0  0  0  0
 12 21  1  0  0  0  0
 13 12  2  0  0  0  0
 14 15  2  0  0  0  0
 14 13  1  0  0  0  0
 15 20  1  0  0  0  0
 16 17  2  0  0  0  0
 16 15  1  0  0  0  0
 17 18  1  0  0  0  0
 18 19  2  0  0  0  0
 20 19  1  0  0  0  0
 20 21  2  0  0  0  0
 23 22  1  0  0  0  0
 24 25  1  0  0  0  0
 24  6  1  0  0  0  0
 27 26  1  0  0  0  0
 28 29  1  0  0  0  0
 29 30  1  0  0  0  0
M  END
>  <minimizedAffinity>
-9.42401791

$$$$

 OpenBabel12271915083D

 30 33  0  0  1  0  0  0  0  0999 V2000
    7.8770   46.3880   43.8830 C   0  0  1  0  0  0  0  0  0  0  0  0
    9.3140   46.1600   43.8030 N   0  0  0  0  0  0  0  0  0  0  0  0
    9.8020   47.0280   43.5300 H   0  0  0  0  0  0  0  0  0  0  0  0
    9.7820   45.8570   45.0980 O   0  0  0  0  0  0  0  0  0  0  0  0
    8.8320   46.3120   46.0600 C   0  0  2  0  0  0  0  0  0  0  0  0
    9.4860   47.3770   46.9570 C   0  0  1  0  0  0  0  0  0  0  0  0
    9.6170   47.0270   48.4370 C   0  0  2  0  0  0  0  0  0  0  0  0
    9.6100   45.5260   48.7670 C   0  0  1  0  0  0  0  0  0  0  0  0
    9.5500   44.6830   47.5090 C   0  0  2  0  0  0  0  0  0  0  0  0
    8.4280   45.1470   46.7630 O   0  0  0  0  0  0  0  0  0  0  0  0
    7.6270   46.8330   45.3040 C   0  0  0  0  0  0  0  0  0  0  0  0
    7.4330   47.4270   42.8840 C   0  0  0  0  0  0  0  0  0  0  0  0
    6.8440   47.0630   41.6720 C   0  0  0  0  0  0  0  0  0  0  0  0
    6.4190   48.0010   40.7550 C   0  0  0  0  0  0  0  0  0  0  0  0
    6.5930   49.3590   41.0240 C   0  0  0  0  0  0  0  0  0  0  0  0
    6.1760   50.3200   40.1180 C   0  0  0  0  0  0  0  0  0  0  0  0
    6.3660   51.6680   40.3880 C   0  0  0  0  0  0  0  0  0  0  0  0
    6.9610   52.0580   41.5770 C   0  0  0  0  0  0  0  0  0  0  0  0
    7.3750   51.1160   42.4960 C   0  0  0  0  0  0  0  0  0  0  0  0
    7.2030   49.7500   42.2310 C   0  0  0  0  0  0  0  0  0  0  0  0
    7.6120   48.7900   43.1430 C   0  0  0  0  0  0  0  0  0  0  0  0
    8.5770   47.6830   49.1660 O   0  0  0  0  0  0  0  0  0  0  0  0
    8.7350   48.6560   49.1140 H   0  0  0  0  0  0  0  0  0  0  0  0
   10.7530   47.7990   46.4440 O   0  0  0  0  0  0  0  0  0  0  0  0
   11.4610   47.1880   46.7340 H   0  0  0  0  0  0  0  0  0  0  0  0
   10.7560   45.1820   49.5330 O   0  0  0  0  0  0  0  0  0  0  0  0
   11.5360   45.0690   48.9590 H   0  0  0  0  0  0  0  0  0  0  0  0
    9.4500   43.1710   47.7410 C   0  0  0  0  0  0  0  0  0  0  0  0
    8.8230   42.6110   46.5860 O   0  0  0  0  0  0  0  0  0  0  0  0
    8.0930   43.2050   46.3010 H   0  0  0  0  0  0  0  0  0  0  0  0
  1 12  1  6  0  0  0
  1 11  1  0  0  0  0
  2  1  1  0  0  0  0
  2  4  1  0  0  0  0
  3  2  1  0  0  0  0
  4  5  1  0  0  0  0
  5 11  1  6  0  0  0
  5 10  1  0  0  0  0
  6  5  1  6  0  0  0
  6  7  1  0  0  0  0
  7  8  1  0  0  0  0
  7 22  1  1  0  0  0
  8 26  1  6  0  0  0
  9 28  1  1  0  0  0
  9  8  1  0  0  0  0
 10  9  1  0  0  0  0
 12 21  1  0  0  0  0
 13 12  2  0  0  0  0
 14 15  2  0  0  0  0
 14 13  1  0  0  0  0
 15 20  1  0  0  0  0
 16 17  2  0  0  0  0
 16 15  1  0  0  0  0
 17 18  1  0  0  0  0
 18 19  2  0  0  0  0
 20 19  1  0  0  0  0
 20 21  2  0  0  0  0
 23 22  1  0  0  0  0
 24 25  1  0  0  0  0
 24  6  1  0  0  0  0
 27 26  1  0  0  0  0
 29 28  1  0  0  0  0
 30 29  1  0  0  0  0
M  END
>  <minimizedAffinity>
-9.17258263

$$$$
