
 OpenBabel12271915073D

 30 33  0  0  1  0  0  0  0  0999 V2000
    6.8660   47.5140   41.7790 C   0  0  1  0  0  0  0  0  0  0  0  0
    7.4540   46.9510   40.5460 N   0  0  0  0  0  0  0  0  0  0  0  0
    6.8910   46.1690   40.2690 H   0  0  0  0  0  0  0  0  0  0  0  0
    8.6340   46.1520   41.1090 O   0  0  0  0  0  0  0  0  0  0  0  0
    8.1910   45.6650   42.3800 C   0  0  2  0  0  0  0  0  0  0  0  0
    9.4010   45.0340   43.1740 C   0  0  1  0  0  0  0  0  0  0  0  0
    9.0600   43.6310   43.7540 C   0  0  2  0  0  0  0  0  0  0  0  0
    8.2680   42.7120   42.7660 C   0  0  1  0  0  0  0  0  0  0  0  0
    7.6390   43.5380   41.6140 C   0  0  2  0  0  0  0  0  0  0  0  0
    7.1070   44.7260   42.2020 O   0  0  0  0  0  0  0  0  0  0  0  0
    7.6340   46.8820   42.9760 C   0  0  0  0  0  0  0  0  0  0  0  0
    6.9000   49.0240   41.7100 C   0  0  0  0  0  0  0  0  0  0  0  0
    6.5660   49.6250   40.5080 C   0  0  0  0  0  0  0  0  0  0  0  0
    6.6350   51.0060   40.3390 C   0  0  0  0  0  0  0  0  0  0  0  0
    7.0340   51.7850   41.4390 C   0  0  0  0  0  0  0  0  0  0  0  0
    7.0980   53.1750   41.2990 C   0  0  0  0  0  0  0  0  0  0  0  0
    7.4850   53.9700   42.3980 C   0  0  0  0  0  0  0  0  0  0  0  0
    7.8160   53.3660   43.6140 C   0  0  0  0  0  0  0  0  0  0  0  0
    7.7660   51.9810   43.7680 C   0  0  0  0  0  0  0  0  0  0  0  0
    7.3590   51.1940   42.6670 C   0  0  0  0  0  0  0  0  0  0  0  0
    7.2850   49.8080   42.8150 C   0  0  0  0  0  0  0  0  0  0  0  0
    8.3740   43.7930   45.0130 O   0  0  0  0  0  0  0  0  0  0  0  0
    7.4640   43.4940   44.9160 H   0  0  0  0  0  0  0  0  0  0  0  0
   10.5370   44.9040   42.2700 O   0  0  0  0  0  0  0  0  0  0  0  0
   11.1380   44.2720   42.6210 H   0  0  0  0  0  0  0  0  0  0  0  0
    9.2170   41.7130   42.3160 O   0  0  0  0  0  0  0  0  0  0  0  0
    9.8060   42.1490   41.7030 H   0  0  0  0  0  0  0  0  0  0  0  0
    6.5150   42.8230   40.8560 C   0  0  0  0  0  0  0  0  0  0  0  0
    6.5010   43.2250   39.4850 O   0  0  0  0  0  0  0  0  0  0  0  0
    5.5950   43.4110   39.2530 H   0  0  0  0  0  0  0  0  0  0  0  0
  1 12  1  6  0  0  0
  1 11  1  0  0  0  0
  2  4  1  0  0  0  0
  2  1  1  0  0  0  0
  3  2  1  0  0  0  0
  4  5  1  0  0  0  0
  5 11  1  1  0  0  0
  6  5  1  6  0  0  0
  6  7  1  0  0  0  0
  7 22  1  1  0  0  0
  8 26  1  6  0  0  0
  8  7  1  0  0  0  0
  9 28  1  1  0  0  0
  9 10  1  0  0  0  0
  9  8  1  0  0  0  0
 10  5  1  0  0  0  0
 12 21  2  0  0  0  0
 13 12  1  0  0  0  0
 14 13  2  0  0  0  0
 14 15  1  0  0  0  0
 15 20  1  0  0  0  0
 16 15  2  0  0  0  0
 16 17  1  0  0  0  0
 17 18  2  0  0  0  0
 18 19  1  0  0  0  0
 20 21  1  0  0  0  0
 20 19  2  0  0  0  0
 23 22  1  0  0  0  0
 24 25  1  0  0  0  0
 24  6  1  0  0  0  0
 27 26  1  0  0  0  0
 29 28  1  0  0  0  0
 30 29  1  0  0  0  0
M  END
>  <minimizedAffinity>
-10.5590124

$$$$

 OpenBabel12271915073D

 30 33  0  0  1  0  0  0  0  0999 V2000
    7.7940   49.1820   45.0560 C   0  0  1  0  0  0  0  0  0  0  0  0
    6.7560   48.1510   45.2690 N   0  0  0  0  0  0  0  0  0  0  0  0
    6.4920   48.1800   46.2360 H   0  0  0  0  0  0  0  0  0  0  0  0
    7.6020   46.8760   45.3340 O   0  0  0  0  0  0  0  0  0  0  0  0
    8.8340   47.2690   45.9480 C   0  0  2  0  0  0  0  0  0  0  0  0
    9.8900   46.0990   45.8480 C   0  0  1  0  0  0  0  0  0  0  0  0
   10.5790   45.8070   47.2120 C   0  0  2  0  0  0  0  0  0  0  0  0
    9.6000   45.8130   48.4310 C   0  0  1  0  0  0  0  0  0  0  0  0
    8.2650   46.5170   48.0750 C   0  0  2  0  0  0  0  0  0  0  0  0
    8.6020   47.6780   47.3140 O   0  0  0  0  0  0  0  0  0  0  0  0
    9.1710   48.4670   45.1740 C   0  0  0  0  0  0  0  0  0  0  0  0
    7.5410   49.8910   43.7450 C   0  0  0  0  0  0  0  0  0  0  0  0
    7.6540   51.2710   43.7240 C   0  0  0  0  0  0  0  0  0  0  0  0
    7.3740   52.0070   42.5740 C   0  0  0  0  0  0  0  0  0  0  0  0
    6.9910   51.3050   41.4190 C   0  0  0  0  0  0  0  0  0  0  0  0
    6.7170   52.0210   40.2500 C   0  0  0  0  0  0  0  0  0  0  0  0
    6.3430   51.3270   39.0790 C   0  0  0  0  0  0  0  0  0  0  0  0
    6.2350   49.9350   39.0970 C   0  0  0  0  0  0  0  0  0  0  0  0
    6.4960   49.2060   40.2570 C   0  0  0  0  0  0  0  0  0  0  0  0
    6.8870   49.9080   41.4200 C   0  0  0  0  0  0  0  0  0  0  0  0
    7.1720   49.1880   42.5820 C   0  0  0  0  0  0  0  0  0  0  0  0
   11.6780   46.7240   47.3930 O   0  0  0  0  0  0  0  0  0  0  0  0
   11.4710   47.3220   48.1190 H   0  0  0  0  0  0  0  0  0  0  0  0
    9.2080   44.8910   45.4000 O   0  0  0  0  0  0  0  0  0  0  0  0
    9.7310   44.1420   45.6250 H   0  0  0  0  0  0  0  0  0  0  0  0
    9.4420   44.4230   48.8130 O   0  0  0  0  0  0  0  0  0  0  0  0
    8.8840   44.0180   48.1520 H   0  0  0  0  0  0  0  0  0  0  0  0
    7.4300   46.9520   49.2850 C   0  0  0  0  0  0  0  0  0  0  0  0
    6.7060   48.1470   48.9890 O   0  0  0  0  0  0  0  0  0  0  0  0
    6.8160   48.7370   49.7300 H   0  0  0  0  0  0  0  0  0  0  0  0
  1 12  1  6  0  0  0
  1 11  1  0  0  0  0
  1  2  1  0  0  0  0
  2  4  1  0  0  0  0
  2  3  1  0  0  0  0
  4  5  1  0  0  0  0
  5 11  1  6  0  0  0
  5 10  1  0  0  0  0
  6  5  1  1  0  0  0
  6  7  1  0  0  0  0
  7 22  1  1  0  0  0
  7  8  1  0  0  0  0
  8 26  1  6  0  0  0
  9  8  1  0  0  0  0
  9 28  1  1  0  0  0
 10  9  1  0  0  0  0
 13 12  1  0  0  0  0
 14 13  2  0  0  0  0
 15 20  1  0  0  0  0
 15 14  1  0  0  0  0
 16 15  2  0  0  0  0
 17 18  2  0  0  0  0
 17 16  1  0  0  0  0
 18 19  1  0  0  0  0
 19 20  2  0  0  0  0
 20 21  1  0  0  0  0
 21 12  2  0  0  0  0
 22 23  1  0  0  0  0
 24 25  1  0  0  0  0
 24  6  1  0  0  0  0
 27 26  1  0  0  0  0
 29 28  1  0  0  0  0
 29 30  1  0  0  0  0
M  END
>  <minimizedAffinity>
-10.0415583

$$$$

 OpenBabel12271915073D

 30 33  0  0  1  0  0  0  0  0999 V2000
    8.0900   48.4040   44.6070 C   0  0  1  0  0  0  0  0  0  0  0  0
    9.3340   47.8240   44.0600 N   0  0  0  0  0  0  0  0  0  0  0  0
    9.1340   46.8830   43.7800 H   0  0  0  0  0  0  0  0  0  0  0  0
   10.1020   47.4860   45.3430 O   0  0  0  0  0  0  0  0  0  0  0  0
    9.1020   47.1180   46.2980 C   0  0  2  0  0  0  0  0  0  0  0  0
    9.7420   46.9870   47.7350 C   0  0  1  0  0  0  0  0  0  0  0  0
    9.3360   45.6620   48.4440 C   0  0  2  0  0  0  0  0  0  0  0  0
    9.3610   44.4090   47.5090 C   0  0  1  0  0  0  0  0  0  0  0  0
    9.3680   44.8240   46.0150 C   0  0  2  0  0  0  0  0  0  0  0  0
    8.4410   45.9020   45.8820 O   0  0  0  0  0  0  0  0  0  0  0  0
    8.1450   48.2190   46.1510 C   0  0  0  0  0  0  0  0  0  0  0  0
    7.9460   49.8310   44.1300 C   0  0  0  0  0  0  0  0  0  0  0  0
    7.9350   50.8350   45.0840 C   0  0  0  0  0  0  0  0  0  0  0  0
    7.7410   52.1700   44.7360 C   0  0  0  0  0  0  0  0  0  0  0  0
    7.5770   52.4790   43.3750 C   0  0  0  0  0  0  0  0  0  0  0  0
    7.3940   53.8130   42.9990 C   0  0  0  0  0  0  0  0  0  0  0  0
    7.2410   54.1390   41.6350 C   0  0  0  0  0  0  0  0  0  0  0  0
    7.2580   53.1290   40.6700 C   0  0  0  0  0  0  0  0  0  0  0  0
    7.4310   51.7920   41.0280 C   0  0  0  0  0  0  0  0  0  0  0  0
    7.6020   51.4770   42.3960 C   0  0  0  0  0  0  0  0  0  0  0  0
    7.7970   50.1450   42.7650 C   0  0  0  0  0  0  0  0  0  0  0  0
    8.0540   45.8400   49.0800 O   0  0  0  0  0  0  0  0  0  0  0  0
    7.4010   45.2910   48.6310 H   0  0  0  0  0  0  0  0  0  0  0  0
   11.1940   47.0210   47.6040 O   0  0  0  0  0  0  0  0  0  0  0  0
   11.5800   46.6480   48.3760 H   0  0  0  0  0  0  0  0  0  0  0  0
   10.5280   43.6470   47.9080 O   0  0  0  0  0  0  0  0  0  0  0  0
   11.2910   44.1180   47.5770 H   0  0  0  0  0  0  0  0  0  0  0  0
    8.9650   43.7110   45.0420 C   0  0  0  0  0  0  0  0  0  0  0  0
    8.6630   42.5090   45.7540 O   0  0  0  0  0  0  0  0  0  0  0  0
    9.1010   41.7930   45.3010 H   0  0  0  0  0  0  0  0  0  0  0  0
  1 12  1  1  0  0  0
  1 11  1  0  0  0  0
  2  1  1  0  0  0  0
  2  4  1  0  0  0  0
  3  2  1  0  0  0  0
  4  5  1  0  0  0  0
  5 11  1  1  0  0  0
  6  5  1  6  0  0  0
  6  7  1  0  0  0  0
  7 22  1  6  0  0  0
  8 26  1  1  0  0  0
  8  7  1  0  0  0  0
  9 28  1  6  0  0  0
  9  8  1  0  0  0  0
 10  9  1  0  0  0  0
 10  5  1  0  0  0  0
 12 13  2  0  0  0  0
 14 13  1  0  0  0  0
 15 14  2  0  0  0  0
 16 15  1  0  0  0  0
 17 16  2  0  0  0  0
 18 19  2  0  0  0  0
 18 17  1  0  0  0  0
 19 20  1  0  0  0  0
 20 21  2  0  0  0  0
 20 15  1  0  0  0  0
 21 12  1  0  0  0  0
 23 22  1  0  0  0  0
 24  6  1  0  0  0  0
 24 25  1  0  0  0  0
 27 26  1  0  0  0  0
 28 29  1  0  0  0  0
 30 29  1  0  0  0  0
M  END
>  <minimizedAffinity>
-9.94220161

$$$$

 OpenBabel12271915073D

 30 33  0  0  1  0  0  0  0  0999 V2000
    8.0290   47.6650   44.9370 C   0  0  1  0  0  0  0  0  0  0  0  0
    9.3290   47.0870   44.5380 N   0  0  0  0  0  0  0  0  0  0  0  0
    9.2190   46.0910   44.4930 H   0  0  0  0  0  0  0  0  0  0  0  0
   10.1030   47.1390   45.8590 O   0  0  0  0  0  0  0  0  0  0  0  0
    9.1250   46.9200   46.8810 C   0  0  2  0  0  0  0  0  0  0  0  0
    9.7510   47.1970   48.3040 C   0  0  1  0  0  0  0  0  0  0  0  0
    9.4550   46.0500   49.3130 C   0  0  2  0  0  0  0  0  0  0  0  0
    9.6080   44.6170   48.7070 C   0  0  1  0  0  0  0  0  0  0  0  0
    9.6020   44.6600   47.1560 C   0  0  2  0  0  0  0  0  0  0  0  0
    8.5830   45.5850   46.7740 O   0  0  0  0  0  0  0  0  0  0  0  0
    8.0750   47.8610   46.4800 C   0  0  0  0  0  0  0  0  0  0  0  0
    7.7640   48.9170   44.1310 C   0  0  0  0  0  0  0  0  0  0  0  0
    7.3670   48.7660   42.8130 C   0  0  0  0  0  0  0  0  0  0  0  0
    7.1670   49.8660   41.9810 C   0  0  0  0  0  0  0  0  0  0  0  0
    7.3580   51.1480   42.5270 C   0  0  0  0  0  0  0  0  0  0  0  0
    7.1500   52.2670   41.7160 C   0  0  0  0  0  0  0  0  0  0  0  0
    7.3260   53.5600   42.2540 C   0  0  0  0  0  0  0  0  0  0  0  0
    7.7200   53.7140   43.5850 C   0  0  0  0  0  0  0  0  0  0  0  0
    7.9400   52.6070   44.4050 C   0  0  0  0  0  0  0  0  0  0  0  0
    7.7440   51.3170   43.8630 C   0  0  0  0  0  0  0  0  0  0  0  0
    7.9410   50.2020   44.6790 C   0  0  0  0  0  0  0  0  0  0  0  0
    8.1510   46.2570   49.8950 O   0  0  0  0  0  0  0  0  0  0  0  0
    7.5590   45.5590   49.5950 H   0  0  0  0  0  0  0  0  0  0  0  0
   11.1960   47.3320   48.1600 O   0  0  0  0  0  0  0  0  0  0  0  0
   11.6020   47.1910   48.9960 H   0  0  0  0  0  0  0  0  0  0  0  0
   10.8330   44.0820   49.2700 O   0  0  0  0  0  0  0  0  0  0  0  0
   11.5550   44.5280   48.8300 H   0  0  0  0  0  0  0  0  0  0  0  0
    9.3160   43.3130   46.4820 C   0  0  0  0  0  0  0  0  0  0  0  0
    8.5880   43.5070   45.2680 O   0  0  0  0  0  0  0  0  0  0  0  0
    7.8750   42.8730   45.2610 H   0  0  0  0  0  0  0  0  0  0  0  0
  1 12  1  6  0  0  0
  1 11  1  0  0  0  0
  2  1  1  0  0  0  0
  2  4  1  0  0  0  0
  3  2  1  0  0  0  0
  4  5  1  0  0  0  0
  5 11  1  6  0  0  0
  6  5  1  6  0  0  0
  6  7  1  0  0  0  0
  7 22  1  6  0  0  0
  8 26  1  6  0  0  0
  8  7  1  0  0  0  0
  9 28  1  6  0  0  0
  9  8  1  0  0  0  0
 10  5  1  0  0  0  0
 10  9  1  0  0  0  0
 12 21  1  0  0  0  0
 13 12  2  0  0  0  0
 14 15  2  0  0  0  0
 14 13  1  0  0  0  0
 15 20  1  0  0  0  0
 16 17  2  0  0  0  0
 16 15  1  0  0  0  0
 17 18  1  0  0  0  0
 18 19  2  0  0  0  0
 20 19  1  0  0  0  0
 20 21  2  0  0  0  0
 23 22  1  0  0  0  0
 24  6  1  0  0  0  0
 24 25  1  0  0  0  0
 27 26  1  0  0  0  0
 29 28  1  0  0  0  0
 30 29  1  0  0  0  0
M  END
>  <minimizedAffinity>
-9.94094181

$$$$

 OpenBabel12271915073D

 30 33  0  0  1  0  0  0  0  0999 V2000
    7.7800   48.0100   43.9380 C   0  0  1  0  0  0  0  0  0  0  0  0
    9.0430   47.4090   43.4600 N   0  0  0  0  0  0  0  0  0  0  0  0
    8.8840   46.4270   43.3330 H   0  0  0  0  0  0  0  0  0  0  0  0
    9.8450   47.3110   44.7610 O   0  0  0  0  0  0  0  0  0  0  0  0
    8.8790   47.0510   45.7840 C   0  0  2  0  0  0  0  0  0  0  0  0
    9.5470   47.1760   47.2100 C   0  0  1  0  0  0  0  0  0  0  0  0
    9.2170   45.9620   48.1250 C   0  0  2  0  0  0  0  0  0  0  0  0
    9.2880   44.5800   47.3960 C   0  0  1  0  0  0  0  0  0  0  0  0
    9.2530   44.7560   45.8550 C   0  0  2  0  0  0  0  0  0  0  0  0
    8.2720   45.7560   45.5780 O   0  0  0  0  0  0  0  0  0  0  0  0
    7.8680   48.0710   45.4910 C   0  0  0  0  0  0  0  0  0  0  0  0
    7.5600   49.3370   43.2480 C   0  0  0  0  0  0  0  0  0  0  0  0
    7.0860   49.3190   41.9470 C   0  0  0  0  0  0  0  0  0  0  0  0
    6.9170   50.4930   41.2160 C   0  0  0  0  0  0  0  0  0  0  0  0
    7.2230   51.7120   41.8470 C   0  0  0  0  0  0  0  0  0  0  0  0
    7.0490   52.9040   41.1380 C   0  0  0  0  0  0  0  0  0  0  0  0
    7.3410   54.1350   41.7640 C   0  0  0  0  0  0  0  0  0  0  0  0
    7.8130   54.1560   43.0780 C   0  0  0  0  0  0  0  0  0  0  0  0
    8.0000   52.9750   43.7960 C   0  0  0  0  0  0  0  0  0  0  0  0
    7.6880   51.7480   43.1680 C   0  0  0  0  0  0  0  0  0  0  0  0
    7.8510   50.5600   43.8830 C   0  0  0  0  0  0  0  0  0  0  0  0
    7.9370   46.1770   48.7550 O   0  0  0  0  0  0  0  0  0  0  0  0
    7.3060   45.5360   48.4120 H   0  0  0  0  0  0  0  0  0  0  0  0
   10.9930   47.2560   47.0430 O   0  0  0  0  0  0  0  0  0  0  0  0
   11.4090   47.0250   47.8540 H   0  0  0  0  0  0  0  0  0  0  0  0
   10.4970   43.9430   47.8820 O   0  0  0  0  0  0  0  0  0  0  0  0
   11.2310   44.3910   47.4640 H   0  0  0  0  0  0  0  0  0  0  0  0
    8.8890   43.4870   45.0770 C   0  0  0  0  0  0  0  0  0  0  0  0
    7.6590   43.6680   44.3710 O   0  0  0  0  0  0  0  0  0  0  0  0
    7.1270   42.8910   44.5230 H   0  0  0  0  0  0  0  0  0  0  0  0
  1 12  1  6  0  0  0
  1 11  1  0  0  0  0
  2  1  1  0  0  0  0
  2  4  1  0  0  0  0
  3  2  1  0  0  0  0
  4  5  1  0  0  0  0
  5 11  1  6  0  0  0
  6  5  1  6  0  0  0
  6  7  1  0  0  0  0
  7 22  1  6  0  0  0
  8 26  1  6  0  0  0
  8  7  1  0  0  0  0
  9 28  1  6  0  0  0
  9  8  1  0  0  0  0
 10  5  1  0  0  0  0
 10  9  1  0  0  0  0
 12 21  1  0  0  0  0
 13 12  2  0  0  0  0
 14 15  2  0  0  0  0
 14 13  1  0  0  0  0
 15 20  1  0  0  0  0
 16 17  2  0  0  0  0
 16 15  1  0  0  0  0
 17 18  1  0  0  0  0
 18 19  2  0  0  0  0
 20 19  1  0  0  0  0
 20 21  2  0  0  0  0
 23 22  1  0  0  0  0
 24  6  1  0  0  0  0
 24 25  1  0  0  0  0
 27 26  1  0  0  0  0
 29 30  1  0  0  0  0
 29 28  1  0  0  0  0
M  END
>  <minimizedAffinity>
-9.81196785

$$$$

 OpenBabel12271915073D

 30 33  0  0  1  0  0  0  0  0999 V2000
    6.5270   49.1050   39.3560 C   0  0  1  0  0  0  0  0  0  0  0  0
    7.3360   49.2540   38.1280 N   0  0  0  0  0  0  0  0  0  0  0  0
    6.7750   48.9500   37.3560 H   0  0  0  0  0  0  0  0  0  0  0  0
    8.2430   48.0220   38.2100 O   0  0  0  0  0  0  0  0  0  0  0  0
    7.4470   47.0060   38.8270 C   0  0  2  0  0  0  0  0  0  0  0  0
    8.3450   45.7590   39.1960 C   0  0  1  0  0  0  0  0  0  0  0  0
    7.7170   44.4180   38.7200 C   0  0  2  0  0  0  0  0  0  0  0  0
    7.0960   44.4810   37.2860 C   0  0  1  0  0  0  0  0  0  0  0  0
    6.8680   45.9480   36.8370 C   0  0  2  0  0  0  0  0  0  0  0  0
    6.3430   46.6470   37.9670 O   0  0  0  0  0  0  0  0  0  0  0  0
    6.9000   47.7280   39.9790 C   0  0  0  0  0  0  0  0  0  0  0  0
    6.7450   50.3030   40.2530 C   0  0  0  0  0  0  0  0  0  0  0  0
    6.7840   51.5550   39.6620 C   0  0  0  0  0  0  0  0  0  0  0  0
    7.0450   52.7040   40.4060 C   0  0  0  0  0  0  0  0  0  0  0  0
    7.2500   52.5610   41.7900 C   0  0  0  0  0  0  0  0  0  0  0  0
    7.5010   53.7010   42.5590 C   0  0  0  0  0  0  0  0  0  0  0  0
    7.6960   53.5740   43.9510 C   0  0  0  0  0  0  0  0  0  0  0  0
    7.6510   52.3120   44.5490 C   0  0  0  0  0  0  0  0  0  0  0  0
    7.4100   51.1640   43.7950 C   0  0  0  0  0  0  0  0  0  0  0  0
    7.1980   51.3030   42.4040 C   0  0  0  0  0  0  0  0  0  0  0  0
    6.9360   50.1640   41.6410 C   0  0  0  0  0  0  0  0  0  0  0  0
    6.7630   43.9670   39.7050 O   0  0  0  0  0  0  0  0  0  0  0  0
    5.8780   44.0130   39.3290 H   0  0  0  0  0  0  0  0  0  0  0  0
    9.6470   45.9180   38.5600 O   0  0  0  0  0  0  0  0  0  0  0  0
   10.0680   45.0780   38.5100 H   0  0  0  0  0  0  0  0  0  0  0  0
    8.0100   43.7450   36.4320 O   0  0  0  0  0  0  0  0  0  0  0  0
    8.7770   44.3010   36.3080 H   0  0  0  0  0  0  0  0  0  0  0  0
    5.8940   46.1120   35.6650 C   0  0  0  0  0  0  0  0  0  0  0  0
    6.2850   45.2810   34.5700 O   0  0  0  0  0  0  0  0  0  0  0  0
    6.2360   45.8120   33.7790 H   0  0  0  0  0  0  0  0  0  0  0  0
  1 11  1  0  0  0  0
  1 12  1  1  0  0  0
  2  4  1  0  0  0  0
  2  1  1  0  0  0  0
  3  2  1  0  0  0  0
  4  5  1  0  0  0  0
  5 11  1  1  0  0  0
  6  5  1  6  0  0  0
  7  6  1  0  0  0  0
  7 22  1  1  0  0  0
  8 26  1  6  0  0  0
  8  7  1  0  0  0  0
  9 28  1  6  0  0  0
  9  8  1  0  0  0  0
  9 10  1  0  0  0  0
 10  5  1  0  0  0  0
 12 21  1  0  0  0  0
 13 12  2  0  0  0  0
 13 14  1  0  0  0  0
 14 15  2  0  0  0  0
 15 20  1  0  0  0  0
 15 16  1  0  0  0  0
 16 17  2  0  0  0  0
 17 18  1  0  0  0  0
 19 18  2  0  0  0  0
 20 19  1  0  0  0  0
 21 20  2  0  0  0  0
 23 22  1  0  0  0  0
 24  6  1  0  0  0  0
 25 24  1  0  0  0  0
 27 26  1  0  0  0  0
 29 28  1  0  0  0  0
 30 29  1  0  0  0  0
M  END
>  <minimizedAffinity>
-9.56086826

$$$$

 OpenBabel12271915073D

 30 33  0  0  1  0  0  0  0  0999 V2000
    7.3010   47.5830   42.1380 C   0  0  1  0  0  0  0  0  0  0  0  0
    8.4010   47.3000   41.1920 N   0  0  0  0  0  0  0  0  0  0  0  0
    8.0090   46.8270   40.4010 H   0  0  0  0  0  0  0  0  0  0  0  0
    9.0580   46.0800   41.8460 O   0  0  0  0  0  0  0  0  0  0  0  0
    7.9860   45.3550   42.4580 C   0  0  2  0  0  0  0  0  0  0  0  0
    8.5610   44.2060   43.3770 C   0  0  1  0  0  0  0  0  0  0  0  0
    7.8690   42.8380   43.1130 C   0  0  2  0  0  0  0  0  0  0  0  0
    7.6400   42.5240   41.5980 C   0  0  1  0  0  0  0  0  0  0  0  0
    7.7610   43.8080   40.7350 C   0  0  2  0  0  0  0  0  0  0  0  0
    7.0880   44.8470   41.4470 O   0  0  0  0  0  0  0  0  0  0  0  0
    7.2900   46.4250   43.1780 C   0  0  0  0  0  0  0  0  0  0  0  0
    7.4740   48.9700   42.7130 C   0  0  0  0  0  0  0  0  0  0  0  0
    7.7890   49.0790   44.0580 C   0  0  0  0  0  0  0  0  0  0  0  0
    7.9010   50.3190   44.6830 C   0  0  0  0  0  0  0  0  0  0  0  0
    7.7060   51.4710   43.9010 C   0  0  0  0  0  0  0  0  0  0  0  0
    7.8260   52.7270   44.5030 C   0  0  0  0  0  0  0  0  0  0  0  0
    7.6450   53.8920   43.7270 C   0  0  0  0  0  0  0  0  0  0  0  0
    7.3330   53.7850   42.3700 C   0  0  0  0  0  0  0  0  0  0  0  0
    7.2010   52.5390   41.7560 C   0  0  0  0  0  0  0  0  0  0  0  0
    7.4030   51.3780   42.5360 C   0  0  0  0  0  0  0  0  0  0  0  0
    7.2940   50.1260   41.9290 C   0  0  0  0  0  0  0  0  0  0  0  0
    6.6440   42.7720   43.8720 O   0  0  0  0  0  0  0  0  0  0  0  0
    5.8970   42.7750   43.2640 H   0  0  0  0  0  0  0  0  0  0  0  0
    9.9880   44.0680   43.1150 O   0  0  0  0  0  0  0  0  0  0  0  0
   10.2730   43.2210   43.4070 H   0  0  0  0  0  0  0  0  0  0  0  0
    8.6110   41.5010   41.2590 O   0  0  0  0  0  0  0  0  0  0  0  0
    9.4620   41.9340   41.2140 H   0  0  0  0  0  0  0  0  0  0  0  0
    7.1440   43.6960   39.3360 C   0  0  0  0  0  0  0  0  0  0  0  0
    7.1910   44.9580   38.6670 O   0  0  0  0  0  0  0  0  0  0  0  0
    6.3340   45.1030   38.2740 H   0  0  0  0  0  0  0  0  0  0  0  0
  1 12  1  1  0  0  0
  1 11  1  0  0  0  0
  2  4  1  0  0  0  0
  2  1  1  0  0  0  0
  3  2  1  0  0  0  0
  4  5  1  0  0  0  0
  5 11  1  1  0  0  0
  6  5  1  6  0  0  0
  7  6  1  0  0  0  0
  7 22  1  1  0  0  0
  8 26  1  6  0  0  0
  8  7  1  0  0  0  0
  9 28  1  6  0  0  0
  9 10  1  0  0  0  0
  9  8  1  0  0  0  0
 10  5  1  0  0  0  0
 12 13  2  0  0  0  0
 13 14  1  0  0  0  0
 15 16  1  0  0  0  0
 15 14  2  0  0  0  0
 17 16  2  0  0  0  0
 18 17  1  0  0  0  0
 19 18  2  0  0  0  0
 19 20  1  0  0  0  0
 20 15  1  0  0  0  0
 21 20  2  0  0  0  0
 21 12  1  0  0  0  0
 23 22  1  0  0  0  0
 24  6  1  0  0  0  0
 24 25  1  0  0  0  0
 27 26  1  0  0  0  0
 29 28  1  0  0  0  0
 30 29  1  0  0  0  0
M  END
>  <minimizedAffinity>
-9.52287483

$$$$

 OpenBabel12271915073D

 30 33  0  0  1  0  0  0  0  0999 V2000
    7.0120   48.5370   42.6390 C   0  0  1  0  0  0  0  0  0  0  0  0
    6.1620   47.4210   43.1040 N   0  0  0  0  0  0  0  0  0  0  0  0
    5.7690   47.6850   43.9880 H   0  0  0  0  0  0  0  0  0  0  0  0
    7.2110   46.4420   43.6400 O   0  0  0  0  0  0  0  0  0  0  0  0
    8.2550   47.2600   44.1750 C   0  0  2  0  0  0  0  0  0  0  0  0
    9.5120   46.3740   44.5360 C   0  0  1  0  0  0  0  0  0  0  0  0
   10.0530   46.6690   45.9650 C   0  0  2  0  0  0  0  0  0  0  0  0
    8.9330   46.8340   47.0440 C   0  0  1  0  0  0  0  0  0  0  0  0
    7.5520   47.0880   46.3860 C   0  0  2  0  0  0  0  0  0  0  0  0
    7.7700   48.0060   45.3140 O   0  0  0  0  0  0  0  0  0  0  0  0
    8.4690   48.2080   43.0780 C   0  0  0  0  0  0  0  0  0  0  0  0
    6.8120   48.7390   41.1540 C   0  0  0  0  0  0  0  0  0  0  0  0
    6.4150   49.9930   40.7200 C   0  0  0  0  0  0  0  0  0  0  0  0
    6.1450   50.2480   39.3770 C   0  0  0  0  0  0  0  0  0  0  0  0
    6.3100   49.1940   38.4600 C   0  0  0  0  0  0  0  0  0  0  0  0
    6.0580   49.4290   37.1050 C   0  0  0  0  0  0  0  0  0  0  0  0
    6.2310   48.3840   36.1730 C   0  0  0  0  0  0  0  0  0  0  0  0
    6.6380   47.1200   36.6080 C   0  0  0  0  0  0  0  0  0  0  0  0
    6.8850   46.8670   37.9570 C   0  0  0  0  0  0  0  0  0  0  0  0
    6.7260   47.9250   38.8820 C   0  0  0  0  0  0  0  0  0  0  0  0
    6.9910   47.6900   40.2320 C   0  0  0  0  0  0  0  0  0  0  0  0
   10.9290   47.8130   45.9120 O   0  0  0  0  0  0  0  0  0  0  0  0
   10.5200   48.5450   46.3870 H   0  0  0  0  0  0  0  0  0  0  0  0
    9.1300   44.9690   44.4600 O   0  0  0  0  0  0  0  0  0  0  0  0
    9.7460   44.4570   44.9530 H   0  0  0  0  0  0  0  0  0  0  0  0
    8.9830   45.6280   47.8470 O   0  0  0  0  0  0  0  0  0  0  0  0
    8.6030   44.9290   47.3170 H   0  0  0  0  0  0  0  0  0  0  0  0
    6.4960   47.6790   47.3270 C   0  0  0  0  0  0  0  0  0  0  0  0
    6.4130   46.9120   48.5300 O   0  0  0  0  0  0  0  0  0  0  0  0
    5.4880   46.7670   48.7110 H   0  0  0  0  0  0  0  0  0  0  0  0
  1 12  1  6  0  0  0
  1 11  1  0  0  0  0
  1  2  1  0  0  0  0
  2  4  1  0  0  0  0
  2  3  1  0  0  0  0
  4  5  1  0  0  0  0
  5 11  1  6  0  0  0
  5 10  1  0  0  0  0
  6  5  1  1  0  0  0
  6  7  1  0  0  0  0
  7 22  1  6  0  0  0
  7  8  1  0  0  0  0
  8 26  1  6  0  0  0
  9  8  1  0  0  0  0
  9 28  1  1  0  0  0
 10  9  1  0  0  0  0
 13 12  1  0  0  0  0
 14 13  2  0  0  0  0
 15 20  1  0  0  0  0
 15 14  1  0  0  0  0
 16 15  2  0  0  0  0
 17 18  2  0  0  0  0
 17 16  1  0  0  0  0
 18 19  1  0  0  0  0
 19 20  2  0  0  0  0
 20 21  1  0  0  0  0
 21 12  2  0  0  0  0
 22 23  1  0  0  0  0
 24  6  1  0  0  0  0
 24 25  1  0  0  0  0
 27 26  1  0  0  0  0
 28 29  1  0  0  0  0
 29 30  1  0  0  0  0
M  END
>  <minimizedAffinity>
-9.41302299

$$$$

 OpenBabel12271915073D

 30 33  0  0  1  0  0  0  0  0999 V2000
    6.6240   48.8170   39.3510 C   0  0  1  0  0  0  0  0  0  0  0  0
    7.6450   49.1070   38.3230 N   0  0  0  0  0  0  0  0  0  0  0  0
    7.1830   49.1320   37.4340 H   0  0  0  0  0  0  0  0  0  0  0  0
    8.3110   47.7370   38.1600 O   0  0  0  0  0  0  0  0  0  0  0  0
    7.2660   46.7810   38.3620 C   0  0  2  0  0  0  0  0  0  0  0  0
    7.8710   45.3260   38.4670 C   0  0  1  0  0  0  0  0  0  0  0  0
    7.1240   44.3080   37.5570 C   0  0  2  0  0  0  0  0  0  0  0  0
    6.7790   44.8620   36.1360 C   0  0  1  0  0  0  0  0  0  0  0  0
    6.8740   46.4100   36.0990 C   0  0  2  0  0  0  0  0  0  0  0  0
    6.2830   46.8880   37.3080 O   0  0  0  0  0  0  0  0  0  0  0  0
    6.6540   47.2800   39.5960 C   0  0  0  0  0  0  0  0  0  0  0  0
    6.8760   49.6730   40.5710 C   0  0  0  0  0  0  0  0  0  0  0  0
    6.9640   49.0400   41.7990 C   0  0  0  0  0  0  0  0  0  0  0  0
    7.1290   49.7610   42.9810 C   0  0  0  0  0  0  0  0  0  0  0  0
    7.2290   51.1600   42.8910 C   0  0  0  0  0  0  0  0  0  0  0  0
    7.4080   51.9030   44.0610 C   0  0  0  0  0  0  0  0  0  0  0  0
    7.5230   53.3080   43.9840 C   0  0  0  0  0  0  0  0  0  0  0  0
    7.4410   53.9480   42.7450 C   0  0  0  0  0  0  0  0  0  0  0  0
    7.2530   53.2220   41.5690 C   0  0  0  0  0  0  0  0  0  0  0  0
    7.1590   51.8140   41.6540 C   0  0  0  0  0  0  0  0  0  0  0  0
    6.9920   51.0740   40.4820 C   0  0  0  0  0  0  0  0  0  0  0  0
    5.9550   43.8240   38.2500 O   0  0  0  0  0  0  0  0  0  0  0  0
    5.1670   44.1450   37.7980 H   0  0  0  0  0  0  0  0  0  0  0  0
    9.2720   45.3730   38.0640 O   0  0  0  0  0  0  0  0  0  0  0  0
    9.5520   44.5070   37.8300 H   0  0  0  0  0  0  0  0  0  0  0  0
    7.6930   44.2000   35.2260 O   0  0  0  0  0  0  0  0  0  0  0  0
    8.5510   44.6010   35.3580 H   0  0  0  0  0  0  0  0  0  0  0  0
    6.1560   47.0650   34.9130 C   0  0  0  0  0  0  0  0  0  0  0  0
    6.9290   46.9200   33.7190 O   0  0  0  0  0  0  0  0  0  0  0  0
    6.9420   47.7690   33.2850 H   0  0  0  0  0  0  0  0  0  0  0  0
  1 11  1  0  0  0  0
  1 12  1  1  0  0  0
  2  1  1  0  0  0  0
  3  2  1  0  0  0  0
  4  2  1  0  0  0  0
  4  5  1  0  0  0  0
  5 11  1  1  0  0  0
  6  5  1  6  0  0  0
  7 22  1  1  0  0  0
  7  6  1  0  0  0  0
  8 26  1  6  0  0  0
  8  7  1  0  0  0  0
  9 28  1  6  0  0  0
  9  8  1  0  0  0  0
  9 10  1  0  0  0  0
 10  5  1  0  0  0  0
 12 13  1  0  0  0  0
 13 14  2  0  0  0  0
 15 14  1  0  0  0  0
 15 16  2  0  0  0  0
 17 16  1  0  0  0  0
 18 17  2  0  0  0  0
 19 20  2  0  0  0  0
 19 18  1  0  0  0  0
 20 15  1  0  0  0  0
 21 12  2  0  0  0  0
 21 20  1  0  0  0  0
 23 22  1  0  0  0  0
 24  6  1  0  0  0  0
 25 24  1  0  0  0  0
 26 27  1  0  0  0  0
 29 28  1  0  0  0  0
 30 29  1  0  0  0  0
M  END
>  <minimizedAffinity>
-9.03450584

$$$$
