
 OpenBabel12271915073D

 32 35  0  0  1  0  0  0  0  0999 V2000
    6.8510   49.6060   38.7800 C   0  0  1  0  0  0  0  0  0  0  0  0
    5.9850   49.6740   37.5500 N   0  0  0  0  0  0  0  0  0  0  0  0
    5.4620   50.5570   37.5040 H   0  0  0  0  0  0  0  0  0  0  0  0
    5.3020   48.9000   37.5550 H   0  0  0  0  0  0  0  0  0  0  0  0
    6.5250   49.5940   36.6710 H   0  0  0  0  0  0  0  0  0  0  0  0
    6.1030   50.1660   40.0080 C   0  0  0  0  0  0  0  0  0  0  0  0
    6.6420   51.4660   40.4600 C   0  0  0  0  0  0  0  0  0  0  0  0
    7.0410   51.7920   41.7940 C   0  0  0  0  0  0  0  0  0  0  0  0
    7.0790   51.0670   43.0120 C   0  0  0  0  0  0  0  0  0  0  0  0
    7.5210   51.7070   44.1570 C   0  0  0  0  0  0  0  0  0  0  0  0
    7.9090   53.0430   44.1230 C   0  0  0  0  0  0  0  0  0  0  0  0
    7.8710   53.7800   42.9450 C   0  0  0  0  0  0  0  0  0  0  0  0
    7.4340   53.1250   41.7780 C   0  0  0  0  0  0  0  0  0  0  0  0
    7.2760   53.5970   40.4970 N   0  0  0  0  0  0  0  0  0  0  0  0
    7.4570   54.5610   40.2210 H   0  0  0  0  0  0  0  0  0  0  0  0
    6.8200   52.6020   39.6860 C   0  0  0  0  0  0  0  0  0  0  0  0
    7.2040   48.1490   39.0310 C   0  0  0  0  0  0  0  0  0  0  0  0
    6.7960   47.8610   40.3810 O   0  0  0  0  0  0  0  0  0  0  0  0
    7.6470   47.0110   41.0440 C   0  0  0  0  0  0  0  0  0  0  0  0
    7.9580   47.1010   42.4000 C   0  0  0  0  0  0  0  0  0  0  0  0
    8.8600   46.2320   42.9920 C   0  0  0  0  0  0  0  0  0  0  0  0
    9.4350   45.2560   42.1440 C   0  0  0  0  0  0  0  0  0  0  0  0
    9.1610   45.1190   40.8340 N   0  0  0  0  0  0  0  0  0  0  0  0
    8.2670   46.0000   40.3230 C   0  0  0  0  0  0  0  0  0  0  0  0
    9.2170   46.3100   44.4000 C   0  0  0  0  0  0  0  0  0  0  0  0
    8.5310   47.0230   45.3490 C   0  0  0  0  0  0  0  0  0  0  0  0
    8.9090   47.0830   46.7520 C   0  0  0  0  0  0  0  0  0  0  0  0
   10.2820   47.2320   47.0600 C   0  0  0  0  0  0  0  0  0  0  0  0
   10.6450   47.2910   48.3890 C   0  0  0  0  0  0  0  0  0  0  0  0
    9.7900   47.2160   49.4240 N   0  0  0  0  0  0  0  0  0  0  0  0
    8.4760   47.0740   49.0970 C   0  0  0  0  0  0  0  0  0  0  0  0
    8.0030   47.0050   47.8030 C   0  0  0  0  0  0  0  0  0  0  0  0
  1 17  1  1  0  0  0
  1  6  1  0  0  0  0
  2  4  1  0  0  0  0
  2  1  1  0  0  0  0
  3  2  1  0  0  0  0
  5  2  1  0  0  0  0
  6  7  1  0  0  0  0
  7  8  1  0  0  0  0
  8  9  1  0  0  0  0
  9 10  2  0  0  0  0
 11 10  1  0  0  0  0
 12 11  2  0  0  0  0
 13  8  2  0  0  0  0
 13 12  1  0  0  0  0
 14 13  1  0  0  0  0
 15 14  1  0  0  0  0
 16  7  2  0  0  0  0
 16 14  1  0  0  0  0
 17 18  1  0  0  0  0
 18 19  1  0  0  0  0
 19 20  2  0  0  0  0
 20 21  1  0  0  0  0
 21 25  1  0  0  0  0
 22 21  2  0  0  0  0
 23 22  1  0  0  0  0
 24 23  2  0  0  0  0
 24 19  1  0  0  0  0
 25 26  2  0  0  0  0
 26 27  1  0  0  0  0
 27 28  2  0  0  0  0
 27 32  1  0  0  0  0
 28 29  1  0  0  0  0
 29 30  2  0  0  0  0
 31 30  1  0  0  0  0
 32 31  2  0  0  0  0
M  END
>  <minimizedAffinity>
-9.24864578

$$$$

 OpenBabel12271915073D

 32 35  0  0  1  0  0  0  0  0999 V2000
    8.2250   45.0120   39.7490 C   0  0  1  0  0  0  0  0  0  0  0  0
    8.5130   43.6490   39.1770 N   0  0  0  0  0  0  0  0  0  0  0  0
    8.7510   42.9720   39.9130 H   0  0  0  0  0  0  0  0  0  0  0  0
    9.3090   43.7010   38.5220 H   0  0  0  0  0  0  0  0  0  0  0  0
    7.7140   43.2560   38.6500 H   0  0  0  0  0  0  0  0  0  0  0  0
    9.2280   45.3580   40.8690 C   0  0  0  0  0  0  0  0  0  0  0  0
    8.5800   45.5150   42.1880 C   0  0  0  0  0  0  0  0  0  0  0  0
    8.6790   46.6580   43.0430 C   0  0  0  0  0  0  0  0  0  0  0  0
    9.3390   47.9090   42.9370 C   0  0  0  0  0  0  0  0  0  0  0  0
    9.2370   48.8080   43.9830 C   0  0  0  0  0  0  0  0  0  0  0  0
    8.5140   48.4910   45.1290 C   0  0  0  0  0  0  0  0  0  0  0  0
    7.8670   47.2680   45.2640 C   0  0  0  0  0  0  0  0  0  0  0  0
    7.9600   46.3590   44.1930 C   0  0  0  0  0  0  0  0  0  0  0  0
    7.4490   45.0900   44.0550 N   0  0  0  0  0  0  0  0  0  0  0  0
    6.9120   44.6130   44.7770 H   0  0  0  0  0  0  0  0  0  0  0  0
    7.7970   44.5770   42.8410 C   0  0  0  0  0  0  0  0  0  0  0  0
    8.3530   46.0320   38.6300 C   0  0  0  0  0  0  0  0  0  0  0  0
    7.0170   46.4780   38.3340 O   0  0  0  0  0  0  0  0  0  0  0  0
    6.7840   47.7870   38.6780 C   0  0  0  0  0  0  0  0  0  0  0  0
    7.0050   48.3250   39.9440 C   0  0  0  0  0  0  0  0  0  0  0  0
    6.7060   49.6480   40.2290 C   0  0  0  0  0  0  0  0  0  0  0  0
    6.1720   50.4090   39.1620 C   0  0  0  0  0  0  0  0  0  0  0  0
    5.9500   49.9430   37.9200 N   0  0  0  0  0  0  0  0  0  0  0  0
    6.2690   48.6430   37.7140 C   0  0  0  0  0  0  0  0  0  0  0  0
    6.9110   50.2350   41.5440 C   0  0  0  0  0  0  0  0  0  0  0  0
    7.1390   51.5650   41.7870 C   0  0  0  0  0  0  0  0  0  0  0  0
    7.3390   52.1270   43.1130 C   0  0  0  0  0  0  0  0  0  0  0  0
    8.0780   53.3290   43.2160 C   0  0  0  0  0  0  0  0  0  0  0  0
    8.2700   53.8660   44.4710 C   0  0  0  0  0  0  0  0  0  0  0  0
    7.8070   53.3310   45.6160 N   0  0  0  0  0  0  0  0  0  0  0  0
    7.1000   52.1760   45.4850 C   0  0  0  0  0  0  0  0  0  0  0  0
    6.8480   51.5530   44.2800 C   0  0  0  0  0  0  0  0  0  0  0  0
  1 17  1  6  0  0  0
  1  6  1  0  0  0  0
  2  1  1  0  0  0  0
  2  3  1  0  0  0  0
  4  2  1  0  0  0  0
  5  2  1  0  0  0  0
  6  7  1  0  0  0  0
  7 16  2  0  0  0  0
  7  8  1  0  0  0  0
  8 13  1  0  0  0  0
  9  8  2  0  0  0  0
  9 10  1  0  0  0  0
 10 11  2  0  0  0  0
 11 12  1  0  0  0  0
 13 12  2  0  0  0  0
 14 13  1  0  0  0  0
 14 15  1  0  0  0  0
 16 14  1  0  0  0  0
 18 17  1  0  0  0  0
 18 19  1  0  0  0  0
 19 20  2  0  0  0  0
 20 21  1  0  0  0  0
 21 25  1  0  0  0  0
 22 21  2  0  0  0  0
 23 22  1  0  0  0  0
 24 23  2  0  0  0  0
 24 19  1  0  0  0  0
 25 26  2  0  0  0  0
 26 27  1  0  0  0  0
 27 28  2  0  0  0  0
 27 32  1  0  0  0  0
 28 29  1  0  0  0  0
 29 30  2  0  0  0  0
 31 30  1  0  0  0  0
 32 31  2  0  0  0  0
M  END
>  <minimizedAffinity>
-9.17863464

$$$$

 OpenBabel12271915073D

 32 35  0  0  1  0  0  0  0  0999 V2000
    9.0030   44.3460   41.3820 C   0  0  1  0  0  0  0  0  0  0  0  0
    8.7250   42.9300   41.8140 N   0  0  0  0  0  0  0  0  0  0  0  0
    7.9310   42.5270   41.3010 H   0  0  0  0  0  0  0  0  0  0  0  0
    8.5000   42.9060   42.8210 H   0  0  0  0  0  0  0  0  0  0  0  0
    9.5320   42.2990   41.6700 H   0  0  0  0  0  0  0  0  0  0  0  0
    7.6870   45.1270   41.1890 C   0  0  0  0  0  0  0  0  0  0  0  0
    7.7730   46.1330   40.1090 C   0  0  0  0  0  0  0  0  0  0  0  0
    7.1350   47.4130   40.1000 C   0  0  0  0  0  0  0  0  0  0  0  0
    6.3070   48.1040   41.0210 C   0  0  0  0  0  0  0  0  0  0  0  0
    5.8360   49.3600   40.6830 C   0  0  0  0  0  0  0  0  0  0  0  0
    6.1520   49.9360   39.4570 C   0  0  0  0  0  0  0  0  0  0  0  0
    6.9520   49.2760   38.5310 C   0  0  0  0  0  0  0  0  0  0  0  0
    7.4430   48.0030   38.8810 C   0  0  0  0  0  0  0  0  0  0  0  0
    8.2260   47.1250   38.1710 N   0  0  0  0  0  0  0  0  0  0  0  0
    8.5580   47.2980   37.2240 H   0  0  0  0  0  0  0  0  0  0  0  0
    8.4520   46.0000   38.9080 C   0  0  0  0  0  0  0  0  0  0  0  0
    9.8300   45.0190   42.4650 C   0  0  0  0  0  0  0  0  0  0  0  0
    9.3480   44.5060   43.7200 O   0  0  0  0  0  0  0  0  0  0  0  0
    9.0830   45.4820   44.6490 C   0  0  0  0  0  0  0  0  0  0  0  0
    8.8330   46.8190   44.3440 C   0  0  0  0  0  0  0  0  0  0  0  0
    8.6140   47.7580   45.3390 C   0  0  0  0  0  0  0  0  0  0  0  0
    8.6560   47.2760   46.6690 C   0  0  0  0  0  0  0  0  0  0  0  0
    8.8800   45.9960   47.0170 N   0  0  0  0  0  0  0  0  0  0  0  0
    9.0820   45.1340   45.9920 C   0  0  0  0  0  0  0  0  0  0  0  0
    8.3670   49.1620   45.0540 C   0  0  0  0  0  0  0  0  0  0  0  0
    8.1710   49.6900   43.8040 C   0  0  0  0  0  0  0  0  0  0  0  0
    7.9240   51.1000   43.5460 C   0  0  0  0  0  0  0  0  0  0  0  0
    7.9580   51.9880   44.6470 C   0  0  0  0  0  0  0  0  0  0  0  0
    7.7260   53.3260   44.4060 C   0  0  0  0  0  0  0  0  0  0  0  0
    7.4660   53.8570   43.1980 N   0  0  0  0  0  0  0  0  0  0  0  0
    7.4400   52.9790   42.1590 C   0  0  0  0  0  0  0  0  0  0  0  0
    7.6590   51.6220   42.2850 C   0  0  0  0  0  0  0  0  0  0  0  0
  1  6  1  1  0  0  0
  1  2  1  0  0  0  0
  1 17  1  0  0  0  0
  2  4  1  0  0  0  0
  3  2  1  0  0  0  0
  5  2  1  0  0  0  0
  7  6  1  0  0  0  0
  8  7  1  0  0  0  0
  8  9  2  0  0  0  0
 10  9  1  0  0  0  0
 11 10  2  0  0  0  0
 12 13  2  0  0  0  0
 12 11  1  0  0  0  0
 13  8  1  0  0  0  0
 14 13  1  0  0  0  0
 14 16  1  0  0  0  0
 15 14  1  0  0  0  0
 16  7  2  0  0  0  0
 17 18  1  0  0  0  0
 18 19  1  0  0  0  0
 19 24  1  0  0  0  0
 20 19  2  0  0  0  0
 20 21  1  0  0  0  0
 21 22  2  0  0  0  0
 22 23  1  0  0  0  0
 24 23  2  0  0  0  0
 25 21  1  0  0  0  0
 26 25  2  0  0  0  0
 27 26  1  0  0  0  0
 27 28  2  0  0  0  0
 29 28  1  0  0  0  0
 30 29  2  0  0  0  0
 31 32  2  0  0  0  0
 31 30  1  0  0  0  0
 32 27  1  0  0  0  0
M  END
>  <minimizedAffinity>
-8.94043636

$$$$

 OpenBabel12271915073D

 32 35  0  0  1  0  0  0  0  0999 V2000
    8.1470   47.4260   44.0520 C   0  0  1  0  0  0  0  0  0  0  0  0
    7.1110   46.3380   43.9450 N   0  0  0  0  0  0  0  0  0  0  0  0
    6.2380   46.6860   43.5300 H   0  0  0  0  0  0  0  0  0  0  0  0
    6.8920   45.9650   44.8820 H   0  0  0  0  0  0  0  0  0  0  0  0
    7.4240   45.5390   43.3670 H   0  0  0  0  0  0  0  0  0  0  0  0
    7.5050   48.7490   44.5180 C   0  0  0  0  0  0  0  0  0  0  0  0
    7.3960   49.7440   43.4310 C   0  0  0  0  0  0  0  0  0  0  0  0
    7.5450   51.1600   43.5700 C   0  0  0  0  0  0  0  0  0  0  0  0
    7.8360   52.0140   44.6640 C   0  0  0  0  0  0  0  0  0  0  0  0
    7.8960   53.3790   44.4490 C   0  0  0  0  0  0  0  0  0  0  0  0
    7.6610   53.9140   43.1860 C   0  0  0  0  0  0  0  0  0  0  0  0
    7.3630   53.1010   42.0980 C   0  0  0  0  0  0  0  0  0  0  0  0
    7.3160   51.7100   42.3150 C   0  0  0  0  0  0  0  0  0  0  0  0
    7.0310   50.6820   41.4480 N   0  0  0  0  0  0  0  0  0  0  0  0
    6.7850   50.8170   40.4690 H   0  0  0  0  0  0  0  0  0  0  0  0
    7.0980   49.4880   42.1020 C   0  0  0  0  0  0  0  0  0  0  0  0
    9.1890   46.9900   45.0690 C   0  0  0  0  0  0  0  0  0  0  0  0
    8.4610   46.5180   46.2170 O   0  0  0  0  0  0  0  0  0  0  0  0
    9.0730   46.8030   47.4130 C   0  0  0  0  0  0  0  0  0  0  0  0
    8.4070   46.9480   48.6290 C   0  0  0  0  0  0  0  0  0  0  0  0
    9.0880   47.2780   49.7900 C   0  0  0  0  0  0  0  0  0  0  0  0
   10.4860   47.4520   49.6640 C   0  0  0  0  0  0  0  0  0  0  0  0
   11.1790   47.3130   48.5190 N   0  0  0  0  0  0  0  0  0  0  0  0
   10.4490   46.9850   47.4260 C   0  0  0  0  0  0  0  0  0  0  0  0
    8.4200   47.4520   51.0700 C   0  0  0  0  0  0  0  0  0  0  0  0
    7.4180   48.3550   51.3200 C   0  0  0  0  0  0  0  0  0  0  0  0
    6.7650   48.5080   52.6110 C   0  0  0  0  0  0  0  0  0  0  0  0
    7.4240   47.9880   53.7490 C   0  0  0  0  0  0  0  0  0  0  0  0
    6.8080   48.1320   54.9750 C   0  0  0  0  0  0  0  0  0  0  0  0
    5.6210   48.7320   55.1750 N   0  0  0  0  0  0  0  0  0  0  0  0
    5.0120   49.2230   54.0610 C   0  0  0  0  0  0  0  0  0  0  0  0
    5.5370   49.1350   52.7880 C   0  0  0  0  0  0  0  0  0  0  0  0
  1  6  1  1  0  0  0
  1 17  1  0  0  0  0
  2  1  1  0  0  0  0
  2  4  1  0  0  0  0
  3  2  1  0  0  0  0
  5  2  1  0  0  0  0
  7  8  1  0  0  0  0
  7  6  1  0  0  0  0
  8  9  2  0  0  0  0
 10  9  1  0  0  0  0
 11 10  2  0  0  0  0
 12 13  2  0  0  0  0
 12 11  1  0  0  0  0
 13  8  1  0  0  0  0
 14 16  1  0  0  0  0
 14 13  1  0  0  0  0
 15 14  1  0  0  0  0
 16  7  2  0  0  0  0
 17 18  1  0  0  0  0
 18 19  1  0  0  0  0
 19 24  2  0  0  0  0
 19 20  1  0  0  0  0
 20 21  2  0  0  0  0
 21 25  1  0  0  0  0
 22 21  1  0  0  0  0
 23 22  2  0  0  0  0
 24 23  1  0  0  0  0
 25 26  2  0  0  0  0
 26 27  1  0  0  0  0
 27 32  2  0  0  0  0
 27 28  1  0  0  0  0
 28 29  2  0  0  0  0
 29 30  1  0  0  0  0
 31 30  2  0  0  0  0
 32 31  1  0  0  0  0
M  END
>  <minimizedAffinity>
-8.92577171

$$$$

 OpenBabel12271915073D

 32 35  0  0  1  0  0  0  0  0999 V2000
    7.0730   48.2100   40.2100 C   0  0  1  0  0  0  0  0  0  0  0  0
    6.6600   47.4260   38.9920 N   0  0  0  0  0  0  0  0  0  0  0  0
    6.2100   48.0260   38.2890 H   0  0  0  0  0  0  0  0  0  0  0  0
    5.9870   46.6890   39.2580 H   0  0  0  0  0  0  0  0  0  0  0  0
    7.4550   46.9560   38.5270 H   0  0  0  0  0  0  0  0  0  0  0  0
    5.9830   49.2310   40.5990 C   0  0  0  0  0  0  0  0  0  0  0  0
    6.4530   50.6290   40.5110 C   0  0  0  0  0  0  0  0  0  0  0  0
    6.9250   51.4270   41.6000 C   0  0  0  0  0  0  0  0  0  0  0  0
    7.1100   51.1860   42.9860 C   0  0  0  0  0  0  0  0  0  0  0  0
    7.5860   52.2110   43.7840 C   0  0  0  0  0  0  0  0  0  0  0  0
    7.8670   53.4630   43.2460 C   0  0  0  0  0  0  0  0  0  0  0  0
    7.6850   53.7300   41.8940 C   0  0  0  0  0  0  0  0  0  0  0  0
    7.2130   52.6820   41.0800 C   0  0  0  0  0  0  0  0  0  0  0  0
    6.9240   52.6600   39.7360 N   0  0  0  0  0  0  0  0  0  0  0  0
    7.0100   53.4690   39.1230 H   0  0  0  0  0  0  0  0  0  0  0  0
    6.4850   51.4210   39.3740 C   0  0  0  0  0  0  0  0  0  0  0  0
    7.2760   47.2340   41.3560 C   0  0  0  0  0  0  0  0  0  0  0  0
    8.4200   47.7060   42.0920 O   0  0  0  0  0  0  0  0  0  0  0  0
    8.6570   47.0060   43.2500 C   0  0  0  0  0  0  0  0  0  0  0  0
    8.5920   47.5510   44.5310 C   0  0  0  0  0  0  0  0  0  0  0  0
    8.8860   46.7930   45.6530 C   0  0  0  0  0  0  0  0  0  0  0  0
    9.2480   45.4450   45.4170 C   0  0  0  0  0  0  0  0  0  0  0  0
    9.3140   44.8680   44.2040 N   0  0  0  0  0  0  0  0  0  0  0  0
    9.0100   45.6680   43.1540 C   0  0  0  0  0  0  0  0  0  0  0  0
    8.8440   47.3350   47.0020 C   0  0  0  0  0  0  0  0  0  0  0  0
    9.2190   46.6610   48.1350 C   0  0  0  0  0  0  0  0  0  0  0  0
    9.1680   47.2280   49.4730 C   0  0  0  0  0  0  0  0  0  0  0  0
    7.9000   47.5870   49.9900 C   0  0  0  0  0  0  0  0  0  0  0  0
    7.8470   48.1230   51.2590 C   0  0  0  0  0  0  0  0  0  0  0  0
    8.9140   48.3360   52.0500 N   0  0  0  0  0  0  0  0  0  0  0  0
   10.1190   47.9800   51.5270 C   0  0  0  0  0  0  0  0  0  0  0  0
   10.2870   47.4350   50.2700 C   0  0  0  0  0  0  0  0  0  0  0  0
  1  6  1  1  0  0  0
  1 17  1  0  0  0  0
  2  4  1  0  0  0  0
  2  1  1  0  0  0  0
  3  2  1  0  0  0  0
  5  2  1  0  0  0  0
  7  6  1  0  0  0  0
  7  8  1  0  0  0  0
  8  9  1  0  0  0  0
  9 10  2  0  0  0  0
 11 10  1  0  0  0  0
 12 11  2  0  0  0  0
 13  8  2  0  0  0  0
 13 12  1  0  0  0  0
 14 13  1  0  0  0  0
 15 14  1  0  0  0  0
 16 14  1  0  0  0  0
 16  7  2  0  0  0  0
 17 18  1  0  0  0  0
 18 19  1  0  0  0  0
 19 20  1  0  0  0  0
 20 21  2  0  0  0  0
 21 25  1  0  0  0  0
 22 21  1  0  0  0  0
 23 22  2  0  0  0  0
 24 19  2  0  0  0  0
 24 23  1  0  0  0  0
 25 26  2  0  0  0  0
 26 27  1  0  0  0  0
 27 28  2  0  0  0  0
 27 32  1  0  0  0  0
 28 29  1  0  0  0  0
 29 30  2  0  0  0  0
 31 30  1  0  0  0  0
 32 31  2  0  0  0  0
M  END
>  <minimizedAffinity>
-8.69096375

$$$$

 OpenBabel12271915073D

 32 35  0  0  1  0  0  0  0  0999 V2000
    7.5700   47.9400   41.2960 C   0  0  1  0  0  0  0  0  0  0  0  0
    7.0380   46.6740   40.6780 N   0  0  0  0  0  0  0  0  0  0  0  0
    6.2770   46.8670   40.0150 H   0  0  0  0  0  0  0  0  0  0  0  0
    6.6710   46.0480   41.4120 H   0  0  0  0  0  0  0  0  0  0  0  0
    7.7610   46.1420   40.1620 H   0  0  0  0  0  0  0  0  0  0  0  0
    6.4160   48.9010   41.6520 C   0  0  0  0  0  0  0  0  0  0  0  0
    6.7560   50.3170   41.4010 C   0  0  0  0  0  0  0  0  0  0  0  0
    7.1610   51.2710   42.3870 C   0  0  0  0  0  0  0  0  0  0  0  0
    7.3770   51.2050   43.7870 C   0  0  0  0  0  0  0  0  0  0  0  0
    7.7630   52.3520   44.4580 C   0  0  0  0  0  0  0  0  0  0  0  0
    7.9250   53.5560   43.7800 C   0  0  0  0  0  0  0  0  0  0  0  0
    7.7100   53.6520   42.4100 C   0  0  0  0  0  0  0  0  0  0  0  0
    7.3300   52.4810   41.7250 C   0  0  0  0  0  0  0  0  0  0  0  0
    7.0350   52.2820   40.3970 N   0  0  0  0  0  0  0  0  0  0  0  0
    7.0420   53.0220   39.6970 H   0  0  0  0  0  0  0  0  0  0  0  0
    6.7080   50.9760   40.1830 C   0  0  0  0  0  0  0  0  0  0  0  0
    8.3200   47.5690   42.5650 C   0  0  0  0  0  0  0  0  0  0  0  0
    7.3730   47.6760   43.6420 O   0  0  0  0  0  0  0  0  0  0  0  0
    7.7940   47.0830   44.8070 C   0  0  0  0  0  0  0  0  0  0  0  0
    7.2340   47.3170   46.0620 C   0  0  0  0  0  0  0  0  0  0  0  0
    7.7400   46.7130   47.2020 C   0  0  0  0  0  0  0  0  0  0  0  0
    8.8460   45.8500   47.0110 C   0  0  0  0  0  0  0  0  0  0  0  0
    9.4160   45.5820   45.8230 N   0  0  0  0  0  0  0  0  0  0  0  0
    8.8670   46.2040   44.7520 C   0  0  0  0  0  0  0  0  0  0  0  0
    7.1890   46.9480   48.5270 C   0  0  0  0  0  0  0  0  0  0  0  0
    7.9280   47.1660   49.6610 C   0  0  0  0  0  0  0  0  0  0  0  0
    7.3520   47.4010   50.9750 C   0  0  0  0  0  0  0  0  0  0  0  0
    6.6350   46.3410   51.5800 C   0  0  0  0  0  0  0  0  0  0  0  0
    6.0880   46.5580   52.8270 C   0  0  0  0  0  0  0  0  0  0  0  0
    6.1810   47.7080   53.5180 N   0  0  0  0  0  0  0  0  0  0  0  0
    6.8750   48.7090   52.9120 C   0  0  0  0  0  0  0  0  0  0  0  0
    7.4640   48.6000   51.6680 C   0  0  0  0  0  0  0  0  0  0  0  0
  1  6  1  1  0  0  0
  1 17  1  0  0  0  0
  2  1  1  0  0  0  0
  2  4  1  0  0  0  0
  3  2  1  0  0  0  0
  5  2  1  0  0  0  0
  7  6  1  0  0  0  0
  7  8  1  0  0  0  0
  8  9  1  0  0  0  0
  9 10  2  0  0  0  0
 11 10  1  0  0  0  0
 12 11  2  0  0  0  0
 13  8  2  0  0  0  0
 13 12  1  0  0  0  0
 14 13  1  0  0  0  0
 15 14  1  0  0  0  0
 16 14  1  0  0  0  0
 16  7  2  0  0  0  0
 17 18  1  0  0  0  0
 18 19  1  0  0  0  0
 19 20  1  0  0  0  0
 20 21  2  0  0  0  0
 21 25  1  0  0  0  0
 22 21  1  0  0  0  0
 23 22  2  0  0  0  0
 24 19  2  0  0  0  0
 24 23  1  0  0  0  0
 25 26  2  0  0  0  0
 26 27  1  0  0  0  0
 27 28  2  0  0  0  0
 27 32  1  0  0  0  0
 28 29  1  0  0  0  0
 29 30  2  0  0  0  0
 31 30  1  0  0  0  0
 32 31  2  0  0  0  0
M  END
>  <minimizedAffinity>
-8.68334484

$$$$

 OpenBabel12271915073D

 32 35  0  0  1  0  0  0  0  0999 V2000
    7.6270   47.7780   41.1260 C   0  0  1  0  0  0  0  0  0  0  0  0
    6.7870   46.9530   40.1870 N   0  0  0  0  0  0  0  0  0  0  0  0
    6.0020   47.4960   39.8050 H   0  0  0  0  0  0  0  0  0  0  0  0
    6.3970   46.1380   40.6850 H   0  0  0  0  0  0  0  0  0  0  0  0
    7.3230   46.5870   39.3820 H   0  0  0  0  0  0  0  0  0  0  0  0
    6.7360   48.6540   42.0310 C   0  0  0  0  0  0  0  0  0  0  0  0
    6.8690   50.0970   41.7380 C   0  0  0  0  0  0  0  0  0  0  0  0
    7.2280   51.1150   42.6760 C   0  0  0  0  0  0  0  0  0  0  0  0
    7.5660   51.1060   44.0540 C   0  0  0  0  0  0  0  0  0  0  0  0
    7.8560   52.3060   44.6780 C   0  0  0  0  0  0  0  0  0  0  0  0
    7.8050   53.5070   43.9760 C   0  0  0  0  0  0  0  0  0  0  0  0
    7.4660   53.5460   42.6290 C   0  0  0  0  0  0  0  0  0  0  0  0
    7.1840   52.3220   41.9910 C   0  0  0  0  0  0  0  0  0  0  0  0
    6.8070   52.0600   40.6950 N   0  0  0  0  0  0  0  0  0  0  0  0
    6.6610   52.7790   39.9890 H   0  0  0  0  0  0  0  0  0  0  0  0
    6.6350   50.7190   40.5220 C   0  0  0  0  0  0  0  0  0  0  0  0
    8.4400   46.8300   41.9910 C   0  0  0  0  0  0  0  0  0  0  0  0
    8.9890   47.6260   43.0570 O   0  0  0  0  0  0  0  0  0  0  0  0
    9.0780   46.9570   44.2540 C   0  0  0  0  0  0  0  0  0  0  0  0
    9.2480   47.5710   45.4940 C   0  0  0  0  0  0  0  0  0  0  0  0
    9.3720   46.8280   46.6570 C   0  0  0  0  0  0  0  0  0  0  0  0
    9.3100   45.4220   46.5070 C   0  0  0  0  0  0  0  0  0  0  0  0
    9.1360   44.7800   45.3380 N   0  0  0  0  0  0  0  0  0  0  0  0
    9.0190   45.5710   44.2440 C   0  0  0  0  0  0  0  0  0  0  0  0
    9.5660   47.4380   47.9630 C   0  0  0  0  0  0  0  0  0  0  0  0
    9.7640   46.7510   49.1320 C   0  0  0  0  0  0  0  0  0  0  0  0
    9.9570   47.3860   50.4260 C   0  0  0  0  0  0  0  0  0  0  0  0
   11.1920   48.0330   50.6660 C   0  0  0  0  0  0  0  0  0  0  0  0
   11.3790   48.6370   51.8910 C   0  0  0  0  0  0  0  0  0  0  0  0
   10.4730   48.6590   52.8850 N   0  0  0  0  0  0  0  0  0  0  0  0
    9.2950   48.0300   52.6250 C   0  0  0  0  0  0  0  0  0  0  0  0
    9.0010   47.3940   51.4360 C   0  0  0  0  0  0  0  0  0  0  0  0
  1 17  1  1  0  0  0
  1  6  1  0  0  0  0
  2  4  1  0  0  0  0
  2  1  1  0  0  0  0
  3  2  1  0  0  0  0
  5  2  1  0  0  0  0
  7  6  1  0  0  0  0
  7  8  1  0  0  0  0
  8  9  2  0  0  0  0
  9 10  1  0  0  0  0
 11 10  2  0  0  0  0
 12 11  1  0  0  0  0
 13 12  2  0  0  0  0
 13  8  1  0  0  0  0
 14 13  1  0  0  0  0
 15 14  1  0  0  0  0
 16 14  1  0  0  0  0
 16  7  2  0  0  0  0
 17 18  1  0  0  0  0
 18 19  1  0  0  0  0
 19 20  1  0  0  0  0
 20 21  2  0  0  0  0
 21 25  1  0  0  0  0
 22 21  1  0  0  0  0
 23 22  2  0  0  0  0
 24 19  2  0  0  0  0
 24 23  1  0  0  0  0
 25 26  2  0  0  0  0
 26 27  1  0  0  0  0
 27 28  2  0  0  0  0
 27 32  1  0  0  0  0
 28 29  1  0  0  0  0
 29 30  2  0  0  0  0
 31 30  1  0  0  0  0
 32 31  2  0  0  0  0
M  END
>  <minimizedAffinity>
-8.66096306

$$$$

 OpenBabel12271915073D

 32 35  0  0  1  0  0  0  0  0999 V2000
    8.2890   47.5040   50.7350 C   0  0  1  0  0  0  0  0  0  0  0  0
    7.0610   48.0870   50.0890 N   0  0  0  0  0  0  0  0  0  0  0  0
    6.5070   48.6380   50.7560 H   0  0  0  0  0  0  0  0  0  0  0  0
    6.4600   47.3310   49.7240 H   0  0  0  0  0  0  0  0  0  0  0  0
    7.2810   48.7090   49.2920 H   0  0  0  0  0  0  0  0  0  0  0  0
    7.9640   46.9700   52.1460 C   0  0  0  0  0  0  0  0  0  0  0  0
    7.9150   48.0410   53.1640 C   0  0  0  0  0  0  0  0  0  0  0  0
    6.7370   48.7080   53.6260 C   0  0  0  0  0  0  0  0  0  0  0  0
    5.3570   48.5840   53.3250 C   0  0  0  0  0  0  0  0  0  0  0  0
    4.4570   49.4210   53.9620 C   0  0  0  0  0  0  0  0  0  0  0  0
    4.8930   50.3790   54.8710 C   0  0  0  0  0  0  0  0  0  0  0  0
    6.2410   50.5300   55.1760 C   0  0  0  0  0  0  0  0  0  0  0  0
    7.1550   49.6690   54.5380 C   0  0  0  0  0  0  0  0  0  0  0  0
    8.5260   49.6010   54.6260 N   0  0  0  0  0  0  0  0  0  0  0  0
    9.0890   50.2270   55.1990 H   0  0  0  0  0  0  0  0  0  0  0  0
    8.9960   48.6090   53.8190 C   0  0  0  0  0  0  0  0  0  0  0  0
    8.7820   46.3570   49.8690 C   0  0  0  0  0  0  0  0  0  0  0  0
    8.0800   46.4640   48.6170 O   0  0  0  0  0  0  0  0  0  0  0  0
    8.8430   46.9850   47.6000 C   0  0  0  0  0  0  0  0  0  0  0  0
    8.3290   47.5740   46.4460 C   0  0  0  0  0  0  0  0  0  0  0  0
    9.1610   48.0400   45.4420 C   0  0  0  0  0  0  0  0  0  0  0  0
   10.5510   47.8840   45.6620 C   0  0  0  0  0  0  0  0  0  0  0  0
   11.0990   47.3350   46.7610 N   0  0  0  0  0  0  0  0  0  0  0  0
   10.2240   46.9050   47.7020 C   0  0  0  0  0  0  0  0  0  0  0  0
    8.6560   48.6450   44.2190 C   0  0  0  0  0  0  0  0  0  0  0  0
    7.9070   49.7920   44.1590 C   0  0  0  0  0  0  0  0  0  0  0  0
    7.4150   50.3770   42.9220 C   0  0  0  0  0  0  0  0  0  0  0  0
    6.9270   49.5000   41.9250 C   0  0  0  0  0  0  0  0  0  0  0  0
    6.4580   50.0500   40.7510 C   0  0  0  0  0  0  0  0  0  0  0  0
    6.4280   51.3670   40.4770 N   0  0  0  0  0  0  0  0  0  0  0  0
    6.9030   52.1860   41.4540 C   0  0  0  0  0  0  0  0  0  0  0  0
    7.3940   51.7430   42.6660 C   0  0  0  0  0  0  0  0  0  0  0  0
  1 17  1  6  0  0  0
  1  6  1  0  0  0  0
  2  1  1  0  0  0  0
  2  3  1  0  0  0  0
  4  2  1  0  0  0  0
  5  2  1  0  0  0  0
  6  7  1  0  0  0  0
  7  8  1  0  0  0  0
  7 16  2  0  0  0  0
  8 13  1  0  0  0  0
  9  8  2  0  0  0  0
  9 10  1  0  0  0  0
 10 11  2  0  0  0  0
 11 12  1  0  0  0  0
 13 14  1  0  0  0  0
 13 12  2  0  0  0  0
 14 15  1  0  0  0  0
 16 14  1  0  0  0  0
 18 17  1  0  0  0  0
 19 24  1  0  0  0  0
 19 18  1  0  0  0  0
 20 19  2  0  0  0  0
 21 22  2  0  0  0  0
 21 20  1  0  0  0  0
 22 23  1  0  0  0  0
 23 24  2  0  0  0  0
 25 21  1  0  0  0  0
 26 25  2  0  0  0  0
 27 26  1  0  0  0  0
 28 27  2  0  0  0  0
 29 28  1  0  0  0  0
 30 29  2  0  0  0  0
 30 31  1  0  0  0  0
 31 32  2  0  0  0  0
 32 27  1  0  0  0  0
M  END
>  <minimizedAffinity>
-8.47258091

$$$$

 OpenBabel12271915073D

 32 35  0  0  1  0  0  0  0  0999 V2000
    8.4790   47.9250   43.7340 C   0  0  1  0  0  0  0  0  0  0  0  0
    7.0630   47.4200   43.8230 N   0  0  0  0  0  0  0  0  0  0  0  0
    6.9750   46.4700   43.4410 H   0  0  0  0  0  0  0  0  0  0  0  0
    6.4330   48.0380   43.2870 H   0  0  0  0  0  0  0  0  0  0  0  0
    6.7050   47.3920   44.7930 H   0  0  0  0  0  0  0  0  0  0  0  0
    9.1140   47.5360   42.3830 C   0  0  0  0  0  0  0  0  0  0  0  0
    9.1250   46.0760   42.1550 C   0  0  0  0  0  0  0  0  0  0  0  0
    8.8050   45.4140   40.9290 C   0  0  0  0  0  0  0  0  0  0  0  0
    8.4280   45.8660   39.6380 C   0  0  0  0  0  0  0  0  0  0  0  0
    8.1700   44.9310   38.6520 C   0  0  0  0  0  0  0  0  0  0  0  0
    8.2630   43.5680   38.9180 C   0  0  0  0  0  0  0  0  0  0  0  0
    8.6200   43.0980   40.1760 C   0  0  0  0  0  0  0  0  0  0  0  0
    8.8950   44.0500   41.1760 C   0  0  0  0  0  0  0  0  0  0  0  0
    9.2460   43.8810   42.4950 N   0  0  0  0  0  0  0  0  0  0  0  0
    9.3410   42.9730   42.9450 H   0  0  0  0  0  0  0  0  0  0  0  0
    9.4100   45.0960   43.0930 C   0  0  0  0  0  0  0  0  0  0  0  0
    8.4520   49.4390   43.8570 C   0  0  0  0  0  0  0  0  0  0  0  0
    7.1080   49.8470   43.5400 O   0  0  0  0  0  0  0  0  0  0  0  0
    7.0100   50.5560   42.3680 C   0  0  0  0  0  0  0  0  0  0  0  0
    6.6910   50.0000   41.1300 C   0  0  0  0  0  0  0  0  0  0  0  0
    6.6520   50.7720   39.9800 C   0  0  0  0  0  0  0  0  0  0  0  0
    6.9490   52.1460   40.1420 C   0  0  0  0  0  0  0  0  0  0  0  0
    7.2510   52.7350   41.3140 N   0  0  0  0  0  0  0  0  0  0  0  0
    7.2670   51.9190   42.3960 C   0  0  0  0  0  0  0  0  0  0  0  0
    6.3380   50.2190   38.6720 C   0  0  0  0  0  0  0  0  0  0  0  0
    6.3940   48.8890   38.3450 C   0  0  0  0  0  0  0  0  0  0  0  0
    6.0730   48.3610   37.0280 C   0  0  0  0  0  0  0  0  0  0  0  0
    6.0550   46.9550   36.8680 C   0  0  0  0  0  0  0  0  0  0  0  0
    5.7500   46.4500   35.6210 C   0  0  0  0  0  0  0  0  0  0  0  0
    5.4680   47.1950   34.5370 N   0  0  0  0  0  0  0  0  0  0  0  0
    5.4930   48.5430   34.7220 C   0  0  0  0  0  0  0  0  0  0  0  0
    5.7840   49.1550   35.9250 C   0  0  0  0  0  0  0  0  0  0  0  0
  1  6  1  6  0  0  0
  1  2  1  0  0  0  0
  1 17  1  0  0  0  0
  2  5  1  0  0  0  0
  3  2  1  0  0  0  0
  4  2  1  0  0  0  0
  7  6  1  0  0  0  0
  7 16  2  0  0  0  0
  8 13  1  0  0  0  0
  8  7  1  0  0  0  0
  9  8  2  0  0  0  0
 10 11  2  0  0  0  0
 10  9  1  0  0  0  0
 11 12  1  0  0  0  0
 12 13  2  0  0  0  0
 13 14  1  0  0  0  0
 14 15  1  0  0  0  0
 14 16  1  0  0  0  0
 18 17  1  0  0  0  0
 19 24  1  0  0  0  0
 19 18  1  0  0  0  0
 20 19  2  0  0  0  0
 21 22  2  0  0  0  0
 21 20  1  0  0  0  0
 22 23  1  0  0  0  0
 23 24  2  0  0  0  0
 25 21  1  0  0  0  0
 26 25  2  0  0  0  0
 27 26  1  0  0  0  0
 28 27  1  0  0  0  0
 29 28  2  0  0  0  0
 30 31  2  0  0  0  0
 30 29  1  0  0  0  0
 31 32  1  0  0  0  0
 32 27  2  0  0  0  0
M  END
>  <minimizedAffinity>
-8.16843891

$$$$
