
 OpenBabel12271914553D

 32 35  0  0  1  0  0  0  0  0999 V2000
    6.9540   49.4620   38.7270 C   0  0  1  0  0  0  0  0  0  0  0  0
    6.0090   49.5460   37.4950 N   0  0  0  0  0  0  0  0  0  0  0  0
    5.9480   50.4990   37.2080 H   0  0  0  0  0  0  0  0  0  0  0  0
    6.3580   48.9640   36.7170 H   0  0  0  0  0  0  0  0  0  0  0  0
    5.0960   49.2090   37.7380 H   0  0  0  0  0  0  0  0  0  0  0  0
    6.1500   49.9280   39.9460 C   0  0  0  0  0  0  0  0  0  0  0  0
    6.5610   51.3120   40.3020 C   0  0  0  0  0  0  0  0  0  0  0  0
    6.9590   51.7280   41.5970 C   0  0  0  0  0  0  0  0  0  0  0  0
    7.0560   51.0110   42.8260 C   0  0  0  0  0  0  0  0  0  0  0  0
    7.4890   51.6630   43.9710 C   0  0  0  0  0  0  0  0  0  0  0  0
    7.8260   53.0250   43.9020 C   0  0  0  0  0  0  0  0  0  0  0  0
    7.7400   53.7320   42.6930 C   0  0  0  0  0  0  0  0  0  0  0  0
    7.3100   53.0440   41.5600 C   0  0  0  0  0  0  0  0  0  0  0  0
    7.1300   53.5100   40.2470 N   0  0  0  0  0  0  0  0  0  0  0  0
    7.2770   54.4330   39.9300 H   0  0  0  0  0  0  0  0  0  0  0  0
    6.6840   52.4270   39.4940 C   0  0  0  0  0  0  0  0  0  0  0  0
    7.2520   47.9330   38.8850 C   0  0  0  0  0  0  0  0  0  0  0  0
    7.5740   47.8490   40.3590 O   0  0  0  0  0  0  0  0  0  0  0  0
    8.1970   47.0910   41.2930 C   0  0  0  0  0  0  0  0  0  0  0  0
    8.3330   47.2970   42.6240 C   0  0  0  0  0  0  0  0  0  0  0  0
    8.9310   46.1970   43.4060 C   0  0  0  0  0  0  0  0  0  0  0  0
    9.3910   45.0190   42.6970 C   0  0  0  0  0  0  0  0  0  0  0  0
    9.2830   44.9240   41.3910 N   0  0  0  0  0  0  0  0  0  0  0  0
    8.6930   45.9810   40.7340 C   0  0  0  0  0  0  0  0  0  0  0  0
    9.0970   46.1550   44.8600 C   0  0  0  0  0  0  0  0  0  0  0  0
    9.0360   47.2070   45.6420 C   0  0  0  0  0  0  0  0  0  0  0  0
    9.2420   47.1820   47.1200 C   0  0  0  0  0  0  0  0  0  0  0  0
    8.1170   47.0390   47.9220 C   0  0  0  0  0  0  0  0  0  0  0  0
    8.3100   47.0200   49.2900 C   0  0  0  0  0  0  0  0  0  0  0  0
    9.5020   47.1310   49.8950 N   0  0  0  0  0  0  0  0  0  0  0  0
   10.5660   47.2700   49.0770 C   0  0  0  0  0  0  0  0  0  0  0  0
   10.5060   47.3040   47.7140 C   0  0  0  0  0  0  0  0  0  0  0  0
  1 17  1  1  0  0  0
  1  6  1  0  0  0  0
  2  5  1  0  0  0  0
  2  1  1  0  0  0  0
  3  2  1  0  0  0  0
  4  2  1  0  0  0  0
  6  7  1  0  0  0  0
  7  8  1  0  0  0  0
  8  9  1  0  0  0  0
  9 10  2  0  0  0  0
 11 10  1  0  0  0  0
 12 11  2  0  0  0  0
 13  8  2  0  0  0  0
 13 12  1  0  0  0  0
 14 13  1  0  0  0  0
 15 14  1  0  0  0  0
 16 14  1  0  0  0  0
 16  7  2  0  0  0  0
 17 18  1  0  0  0  0
 18 19  1  0  0  0  0
 19 20  1  0  0  0  0
 20 21  2  0  0  0  0
 21 25  1  0  0  0  0
 22 21  1  0  0  0  0
 23 22  2  0  0  0  0
 24 19  2  0  0  0  0
 24 23  1  0  0  0  0
 25 26  2  0  0  0  0
 26 27  1  0  0  0  0
 27 32  2  0  0  0  0
 27 28  1  0  0  0  0
 28 29  2  0  0  0  0
 29 30  1  0  0  0  0
 31 30  2  0  0  0  0
 32 31  1  0  0  0  0
M  END
>  <minimizedAffinity>
-9.28253555

$$$$

 OpenBabel12271914553D

 32 35  0  0  1  0  0  0  0  0999 V2000
    8.3520   44.6470   40.0910 C   0  0  1  0  0  0  0  0  0  0  0  0
    8.8010   43.1660   39.9430 N   0  0  0  0  0  0  0  0  0  0  0  0
    8.5070   42.6630   40.7520 H   0  0  0  0  0  0  0  0  0  0  0  0
    8.3980   42.7370   39.0940 H   0  0  0  0  0  0  0  0  0  0  0  0
    9.8000   43.1150   39.8610 H   0  0  0  0  0  0  0  0  0  0  0  0
    9.3390   45.3250   41.0480 C   0  0  0  0  0  0  0  0  0  0  0  0
    8.7240   45.4160   42.3990 C   0  0  0  0  0  0  0  0  0  0  0  0
    8.8230   46.5400   43.2570 C   0  0  0  0  0  0  0  0  0  0  0  0
    9.4910   47.7890   43.0960 C   0  0  0  0  0  0  0  0  0  0  0  0
    9.4230   48.7410   44.1010 C   0  0  0  0  0  0  0  0  0  0  0  0
    8.6930   48.4590   45.2690 C   0  0  0  0  0  0  0  0  0  0  0  0
    8.0270   47.2340   45.4270 C   0  0  0  0  0  0  0  0  0  0  0  0
    8.1100   46.3040   44.3930 C   0  0  0  0  0  0  0  0  0  0  0  0
    7.5510   45.0180   44.3030 N   0  0  0  0  0  0  0  0  0  0  0  0
    7.0090   44.5670   44.9930 H   0  0  0  0  0  0  0  0  0  0  0  0
    7.9310   44.5010   43.0670 C   0  0  0  0  0  0  0  0  0  0  0  0
    8.5470   45.2580   38.6630 C   0  0  0  0  0  0  0  0  0  0  0  0
    7.4390   46.2850   38.6310 O   0  0  0  0  0  0  0  0  0  0  0  0
    7.0460   47.4740   39.1480 C   0  0  0  0  0  0  0  0  0  0  0  0
    7.1190   47.9320   40.4190 C   0  0  0  0  0  0  0  0  0  0  0  0
    6.7510   49.3450   40.6370 C   0  0  0  0  0  0  0  0  0  0  0  0
    6.2740   50.1140   39.5050 C   0  0  0  0  0  0  0  0  0  0  0  0
    6.1680   49.5750   38.3110 N   0  0  0  0  0  0  0  0  0  0  0  0
    6.5530   48.2590   38.1830 C   0  0  0  0  0  0  0  0  0  0  0  0
    6.8360   50.0790   41.9000 C   0  0  0  0  0  0  0  0  0  0  0  0
    7.3790   51.2670   42.0310 C   0  0  0  0  0  0  0  0  0  0  0  0
    7.5060   52.0080   43.3200 C   0  0  0  0  0  0  0  0  0  0  0  0
    8.1790   53.2240   43.2980 C   0  0  0  0  0  0  0  0  0  0  0  0
    8.2980   53.9060   44.4930 C   0  0  0  0  0  0  0  0  0  0  0  0
    7.8130   53.4790   45.6680 N   0  0  0  0  0  0  0  0  0  0  0  0
    7.1680   52.2940   45.6430 C   0  0  0  0  0  0  0  0  0  0  0  0
    6.9860   51.5270   44.5290 C   0  0  0  0  0  0  0  0  0  0  0  0
  1 17  1  6  0  0  0
  1  6  1  0  0  0  0
  2  1  1  0  0  0  0
  2  3  1  0  0  0  0
  4  2  1  0  0  0  0
  5  2  1  0  0  0  0
  6  7  1  0  0  0  0
  7 16  2  0  0  0  0
  7  8  1  0  0  0  0
  8 13  1  0  0  0  0
  9  8  2  0  0  0  0
  9 10  1  0  0  0  0
 10 11  2  0  0  0  0
 11 12  1  0  0  0  0
 13 12  2  0  0  0  0
 14 13  1  0  0  0  0
 14 15  1  0  0  0  0
 16 14  1  0  0  0  0
 18 17  1  0  0  0  0
 18 19  1  0  0  0  0
 19 20  2  0  0  0  0
 20 21  1  0  0  0  0
 21 25  1  0  0  0  0
 22 21  2  0  0  0  0
 23 22  1  0  0  0  0
 24 23  2  0  0  0  0
 24 19  1  0  0  0  0
 25 26  2  0  0  0  0
 26 27  1  0  0  0  0
 27 32  1  0  0  0  0
 28 27  2  0  0  0  0
 28 29  1  0  0  0  0
 29 30  2  0  0  0  0
 31 30  1  0  0  0  0
 32 31  2  0  0  0  0
M  END
>  <minimizedAffinity>
-9.10123348

$$$$

 OpenBabel12271914553D

 32 35  0  0  1  0  0  0  0  0999 V2000
    7.8470   47.2490   44.3720 C   0  0  1  0  0  0  0  0  0  0  0  0
    6.7140   46.5910   45.2100 N   0  0  0  0  0  0  0  0  0  0  0  0
    5.8370   46.8450   44.8110 H   0  0  0  0  0  0  0  0  0  0  0  0
    6.8110   45.5620   45.2250 H   0  0  0  0  0  0  0  0  0  0  0  0
    6.7570   46.9110   46.1600 H   0  0  0  0  0  0  0  0  0  0  0  0
    7.9210   48.7220   44.7910 C   0  0  0  0  0  0  0  0  0  0  0  0
    7.6000   49.5780   43.6200 C   0  0  0  0  0  0  0  0  0  0  0  0
    7.6080   50.9960   43.6290 C   0  0  0  0  0  0  0  0  0  0  0  0
    7.8850   51.9270   44.6730 C   0  0  0  0  0  0  0  0  0  0  0  0
    7.8320   53.2880   44.4140 C   0  0  0  0  0  0  0  0  0  0  0  0
    7.5040   53.7300   43.1210 C   0  0  0  0  0  0  0  0  0  0  0  0
    7.2390   52.8170   42.0890 C   0  0  0  0  0  0  0  0  0  0  0  0
    7.3100   51.4570   42.3830 C   0  0  0  0  0  0  0  0  0  0  0  0
    7.0860   50.3500   41.5460 N   0  0  0  0  0  0  0  0  0  0  0  0
    6.8230   50.3810   40.5960 H   0  0  0  0  0  0  0  0  0  0  0  0
    7.2830   49.2120   42.3240 C   0  0  0  0  0  0  0  0  0  0  0  0
    9.1540   46.5300   44.8520 C   0  0  0  0  0  0  0  0  0  0  0  0
    8.8640   46.3520   46.3250 O   0  0  0  0  0  0  0  0  0  0  0  0
    9.1870   46.8080   47.5580 C   0  0  0  0  0  0  0  0  0  0  0  0
    8.3990   47.0200   48.6370 C   0  0  0  0  0  0  0  0  0  0  0  0
    9.0820   47.3720   49.8980 C   0  0  0  0  0  0  0  0  0  0  0  0
   10.5210   47.5360   49.8780 C   0  0  0  0  0  0  0  0  0  0  0  0
   11.2100   47.3780   48.7700 N   0  0  0  0  0  0  0  0  0  0  0  0
   10.5050   47.0270   47.6410 C   0  0  0  0  0  0  0  0  0  0  0  0
    8.4490   47.5590   51.2050 C   0  0  0  0  0  0  0  0  0  0  0  0
    7.3760   48.2850   51.4110 C   0  0  0  0  0  0  0  0  0  0  0  0
    6.7460   48.5150   52.7430 C   0  0  0  0  0  0  0  0  0  0  0  0
    5.5420   49.2080   52.7740 C   0  0  0  0  0  0  0  0  0  0  0  0
    4.9620   49.4220   54.0090 C   0  0  0  0  0  0  0  0  0  0  0  0
    5.4780   49.0100   55.1770 N   0  0  0  0  0  0  0  0  0  0  0  0
    6.6470   48.3420   55.1000 C   0  0  0  0  0  0  0  0  0  0  0  0
    7.3180   48.0690   53.9430 C   0  0  0  0  0  0  0  0  0  0  0  0
  1  6  1  1  0  0  0
  1 17  1  0  0  0  0
  1  2  1  0  0  0  0
  2  4  1  0  0  0  0
  2  5  1  0  0  0  0
  3  2  1  0  0  0  0
  7  8  1  0  0  0  0
  7  6  1  0  0  0  0
  8  9  2  0  0  0  0
 10  9  1  0  0  0  0
 11 10  2  0  0  0  0
 12 13  2  0  0  0  0
 12 11  1  0  0  0  0
 13  8  1  0  0  0  0
 14 16  1  0  0  0  0
 14 13  1  0  0  0  0
 15 14  1  0  0  0  0
 16  7  2  0  0  0  0
 17 18  1  0  0  0  0
 18 19  1  0  0  0  0
 19 24  2  0  0  0  0
 19 20  1  0  0  0  0
 20 21  2  0  0  0  0
 21 25  1  0  0  0  0
 22 21  1  0  0  0  0
 23 22  2  0  0  0  0
 24 23  1  0  0  0  0
 25 26  2  0  0  0  0
 26 27  1  0  0  0  0
 27 28  2  0  0  0  0
 27 32  1  0  0  0  0
 28 29  1  0  0  0  0
 29 30  2  0  0  0  0
 31 30  1  0  0  0  0
 32 31  2  0  0  0  0
M  END
>  <minimizedAffinity>
-9.04740238

$$$$

 OpenBabel12271914553D

 32 35  0  0  1  0  0  0  0  0999 V2000
    7.0580   48.9820   39.6200 C   0  0  1  0  0  0  0  0  0  0  0  0
    6.5970   48.6880   38.1650 N   0  0  0  0  0  0  0  0  0  0  0  0
    6.7560   49.5030   37.6120 H   0  0  0  0  0  0  0  0  0  0  0  0
    7.1090   47.8850   37.7660 H   0  0  0  0  0  0  0  0  0  0  0  0
    5.6200   48.4590   38.1520 H   0  0  0  0  0  0  0  0  0  0  0  0
    5.9590   49.8210   40.2820 C   0  0  0  0  0  0  0  0  0  0  0  0
    6.4250   51.2280   40.4010 C   0  0  0  0  0  0  0  0  0  0  0  0
    6.8950   51.8250   41.5980 C   0  0  0  0  0  0  0  0  0  0  0  0
    7.0310   51.3020   42.9180 C   0  0  0  0  0  0  0  0  0  0  0  0
    7.5360   52.1060   43.9280 C   0  0  0  0  0  0  0  0  0  0  0  0
    7.9060   53.4290   43.6350 C   0  0  0  0  0  0  0  0  0  0  0  0
    7.7820   53.9440   42.3360 C   0  0  0  0  0  0  0  0  0  0  0  0
    7.2790   53.1060   41.3430 C   0  0  0  0  0  0  0  0  0  0  0  0
    7.0500   53.3710   39.9820 N   0  0  0  0  0  0  0  0  0  0  0  0
    7.2060   54.2290   39.5200 H   0  0  0  0  0  0  0  0  0  0  0  0
    6.5390   52.2020   39.4250 C   0  0  0  0  0  0  0  0  0  0  0  0
    7.0920   47.5760   40.3090 C   0  0  0  0  0  0  0  0  0  0  0  0
    8.0600   47.8300   41.4410 O   0  0  0  0  0  0  0  0  0  0  0  0
    8.4920   47.3440   42.6290 C   0  0  0  0  0  0  0  0  0  0  0  0
    8.4810   47.9180   43.8550 C   0  0  0  0  0  0  0  0  0  0  0  0
    8.8780   47.0620   44.9910 C   0  0  0  0  0  0  0  0  0  0  0  0
    9.3160   45.7090   44.7130 C   0  0  0  0  0  0  0  0  0  0  0  0
    9.3630   45.2460   43.4840 N   0  0  0  0  0  0  0  0  0  0  0  0
    8.9540   46.0970   42.4800 C   0  0  0  0  0  0  0  0  0  0  0  0
    8.8580   47.4340   46.4060 C   0  0  0  0  0  0  0  0  0  0  0  0
    9.5720   46.8450   47.3370 C   0  0  0  0  0  0  0  0  0  0  0  0
    9.5310   47.1890   48.7880 C   0  0  0  0  0  0  0  0  0  0  0  0
   10.7360   47.4890   49.4110 C   0  0  0  0  0  0  0  0  0  0  0  0
   10.6960   47.8040   50.7550 C   0  0  0  0  0  0  0  0  0  0  0  0
    9.5800   47.8410   51.4990 N   0  0  0  0  0  0  0  0  0  0  0  0
    8.4330   47.5420   50.8530 C   0  0  0  0  0  0  0  0  0  0  0  0
    8.3430   47.2140   49.5310 C   0  0  0  0  0  0  0  0  0  0  0  0
  1  6  1  1  0  0  0
  1 17  1  0  0  0  0
  2  1  1  0  0  0  0
  3  2  1  0  0  0  0
  4  2  1  0  0  0  0
  5  2  1  0  0  0  0
  6  7  1  0  0  0  0
  7  8  1  0  0  0  0
  8  9  1  0  0  0  0
  9 10  2  0  0  0  0
 11 10  1  0  0  0  0
 12 11  2  0  0  0  0
 13  8  2  0  0  0  0
 13 12  1  0  0  0  0
 14 13  1  0  0  0  0
 15 14  1  0  0  0  0
 16 14  1  0  0  0  0
 16  7  2  0  0  0  0
 17 18  1  0  0  0  0
 18 19  1  0  0  0  0
 19 20  1  0  0  0  0
 20 21  2  0  0  0  0
 21 25  1  0  0  0  0
 22 21  1  0  0  0  0
 23 22  2  0  0  0  0
 24 19  2  0  0  0  0
 24 23  1  0  0  0  0
 25 26  2  0  0  0  0
 26 27  1  0  0  0  0
 27 28  2  0  0  0  0
 27 32  1  0  0  0  0
 28 29  1  0  0  0  0
 29 30  2  0  0  0  0
 31 30  1  0  0  0  0
 32 31  2  0  0  0  0
M  END
>  <minimizedAffinity>
-8.88440228

$$$$

 OpenBabel12271914553D

 32 35  0  0  1  0  0  0  0  0999 V2000
    8.6080   47.6090   43.7230 C   0  0  1  0  0  0  0  0  0  0  0  0
    9.3930   46.8410   42.6230 N   0  0  0  0  0  0  0  0  0  0  0  0
   10.1080   47.4400   42.2680 H   0  0  0  0  0  0  0  0  0  0  0  0
    9.8130   45.9760   42.9990 H   0  0  0  0  0  0  0  0  0  0  0  0
    8.7750   46.5780   41.8780 H   0  0  0  0  0  0  0  0  0  0  0  0
    7.6480   48.5680   43.0080 C   0  0  0  0  0  0  0  0  0  0  0  0
    7.6570   49.8790   43.7090 C   0  0  0  0  0  0  0  0  0  0  0  0
    7.5250   51.1370   43.0700 C   0  0  0  0  0  0  0  0  0  0  0  0
    7.3770   51.4810   41.6950 C   0  0  0  0  0  0  0  0  0  0  0  0
    7.2570   52.8130   41.3270 C   0  0  0  0  0  0  0  0  0  0  0  0
    7.2850   53.8070   42.3200 C   0  0  0  0  0  0  0  0  0  0  0  0
    7.4220   53.4710   43.6760 C   0  0  0  0  0  0  0  0  0  0  0  0
    7.5310   52.1230   44.0100 C   0  0  0  0  0  0  0  0  0  0  0  0
    7.6840   51.5260   45.2730 N   0  0  0  0  0  0  0  0  0  0  0  0
    7.7520   51.9970   46.1370 H   0  0  0  0  0  0  0  0  0  0  0  0
    7.7450   50.1510   45.0620 C   0  0  0  0  0  0  0  0  0  0  0  0
    7.7600   46.5040   44.4400 C   0  0  0  0  0  0  0  0  0  0  0  0
    8.6590   46.1570   45.6040 O   0  0  0  0  0  0  0  0  0  0  0  0
    9.1510   46.6290   46.7740 C   0  0  0  0  0  0  0  0  0  0  0  0
    8.5100   46.9060   47.9330 C   0  0  0  0  0  0  0  0  0  0  0  0
    9.3560   47.2570   49.0900 C   0  0  0  0  0  0  0  0  0  0  0  0
   10.7880   47.3510   48.8930 C   0  0  0  0  0  0  0  0  0  0  0  0
   11.3300   47.1310   47.7160 N   0  0  0  0  0  0  0  0  0  0  0  0
   10.4770   46.7860   46.6910 C   0  0  0  0  0  0  0  0  0  0  0  0
    8.8960   47.5080   50.4580 C   0  0  0  0  0  0  0  0  0  0  0  0
    7.7710   48.1130   50.7610 C   0  0  0  0  0  0  0  0  0  0  0  0
    7.3110   48.4090   52.1490 C   0  0  0  0  0  0  0  0  0  0  0  0
    8.0780   49.2850   52.9070 C   0  0  0  0  0  0  0  0  0  0  0  0
    7.6520   49.5550   54.1930 C   0  0  0  0  0  0  0  0  0  0  0  0
    6.5550   49.0320   54.7600 N   0  0  0  0  0  0  0  0  0  0  0  0
    5.8410   48.1860   53.9880 C   0  0  0  0  0  0  0  0  0  0  0  0
    6.1580   47.8400   52.7060 C   0  0  0  0  0  0  0  0  0  0  0  0
  1  6  1  6  0  0  0
  1 17  1  0  0  0  0
  2  4  1  0  0  0  0
  2  1  1  0  0  0  0
  3  2  1  0  0  0  0
  5  2  1  0  0  0  0
  6  7  1  0  0  0  0
  7 16  2  0  0  0  0
  8  7  1  0  0  0  0
  8 13  2  0  0  0  0
  9  8  1  0  0  0  0
 10  9  2  0  0  0  0
 10 11  1  0  0  0  0
 11 12  2  0  0  0  0
 12 13  1  0  0  0  0
 13 14  1  0  0  0  0
 14 15  1  0  0  0  0
 16 14  1  0  0  0  0
 17 18  1  0  0  0  0
 18 19  1  0  0  0  0
 19 20  1  0  0  0  0
 20 21  2  0  0  0  0
 21 25  1  0  0  0  0
 22 21  1  0  0  0  0
 23 22  2  0  0  0  0
 24 19  2  0  0  0  0
 24 23  1  0  0  0  0
 25 26  2  0  0  0  0
 26 27  1  0  0  0  0
 27 32  2  0  0  0  0
 27 28  1  0  0  0  0
 28 29  2  0  0  0  0
 29 30  1  0  0  0  0
 31 30  2  0  0  0  0
 32 31  1  0  0  0  0
M  END
>  <minimizedAffinity>
-8.8818121

$$$$

 OpenBabel12271914553D

 32 35  0  0  1  0  0  0  0  0999 V2000
    7.5850   47.8470   41.1810 C   0  0  1  0  0  0  0  0  0  0  0  0
    6.5930   47.3550   40.0890 N   0  0  0  0  0  0  0  0  0  0  0  0
    6.3770   48.1220   39.4900 H   0  0  0  0  0  0  0  0  0  0  0  0
    6.9990   46.5800   39.5400 H   0  0  0  0  0  0  0  0  0  0  0  0
    5.7520   47.0140   40.5160 H   0  0  0  0  0  0  0  0  0  0  0  0
    6.7650   48.6160   42.2240 C   0  0  0  0  0  0  0  0  0  0  0  0
    6.8540   50.0720   41.9370 C   0  0  0  0  0  0  0  0  0  0  0  0
    7.1890   51.0640   42.8930 C   0  0  0  0  0  0  0  0  0  0  0  0
    7.4940   50.9650   44.2820 C   0  0  0  0  0  0  0  0  0  0  0  0
    7.8030   52.1090   45.0020 C   0  0  0  0  0  0  0  0  0  0  0  0
    7.8100   53.3530   44.3490 C   0  0  0  0  0  0  0  0  0  0  0  0
    7.5190   53.4530   42.9800 C   0  0  0  0  0  0  0  0  0  0  0  0
    7.2220   52.2830   42.2850 C   0  0  0  0  0  0  0  0  0  0  0  0
    6.8920   52.1080   40.9300 N   0  0  0  0  0  0  0  0  0  0  0  0
    6.8080   52.8210   40.2540 H   0  0  0  0  0  0  0  0  0  0  0  0
    6.6850   50.7440   40.7400 C   0  0  0  0  0  0  0  0  0  0  0  0
    8.1190   46.5320   41.8430 C   0  0  0  0  0  0  0  0  0  0  0  0
    8.5570   47.0430   43.1960 O   0  0  0  0  0  0  0  0  0  0  0  0
    8.9690   46.6490   44.4240 C   0  0  0  0  0  0  0  0  0  0  0  0
    9.3460   47.3910   45.4910 C   0  0  0  0  0  0  0  0  0  0  0  0
    9.5880   46.6640   46.7520 C   0  0  0  0  0  0  0  0  0  0  0  0
    9.4790   45.2190   46.7460 C   0  0  0  0  0  0  0  0  0  0  0  0
    9.1730   44.5640   45.6490 N   0  0  0  0  0  0  0  0  0  0  0  0
    8.9380   45.3140   44.5180 C   0  0  0  0  0  0  0  0  0  0  0  0
    9.9160   47.2600   48.0490 C   0  0  0  0  0  0  0  0  0  0  0  0
    9.2910   46.9840   49.1690 C   0  0  0  0  0  0  0  0  0  0  0  0
    9.5910   47.6130   50.4890 C   0  0  0  0  0  0  0  0  0  0  0  0
    8.5160   48.0780   51.2370 C   0  0  0  0  0  0  0  0  0  0  0  0
    8.7970   48.6630   52.4570 C   0  0  0  0  0  0  0  0  0  0  0  0
   10.0280   48.8140   52.9670 N   0  0  0  0  0  0  0  0  0  0  0  0
   11.0410   48.3500   52.2060 C   0  0  0  0  0  0  0  0  0  0  0  0
   10.8930   47.7540   50.9860 C   0  0  0  0  0  0  0  0  0  0  0  0
  1 17  1  1  0  0  0
  1  6  1  0  0  0  0
  2  5  1  0  0  0  0
  2  1  1  0  0  0  0
  3  2  1  0  0  0  0
  4  2  1  0  0  0  0
  7  6  1  0  0  0  0
  7  8  1  0  0  0  0
  8  9  1  0  0  0  0
  9 10  2  0  0  0  0
 11 10  1  0  0  0  0
 12 11  2  0  0  0  0
 13  8  2  0  0  0  0
 13 12  1  0  0  0  0
 14 13  1  0  0  0  0
 15 14  1  0  0  0  0
 16 14  1  0  0  0  0
 16  7  2  0  0  0  0
 17 18  1  0  0  0  0
 18 19  1  0  0  0  0
 19 24  2  0  0  0  0
 19 20  1  0  0  0  0
 20 21  2  0  0  0  0
 21 25  1  0  0  0  0
 22 21  1  0  0  0  0
 23 22  2  0  0  0  0
 24 23  1  0  0  0  0
 25 26  2  0  0  0  0
 26 27  1  0  0  0  0
 27 32  2  0  0  0  0
 27 28  1  0  0  0  0
 28 29  2  0  0  0  0
 29 30  1  0  0  0  0
 31 30  2  0  0  0  0
 32 31  1  0  0  0  0
M  END
>  <minimizedAffinity>
-8.7179451

$$$$

 OpenBabel12271914553D

 32 35  0  0  1  0  0  0  0  0999 V2000
    7.1910   47.9460   45.7050 C   0  0  1  0  0  0  0  0  0  0  0  0
    6.5820   48.4720   47.0360 N   0  0  0  0  0  0  0  0  0  0  0  0
    5.9180   49.1850   46.8200 H   0  0  0  0  0  0  0  0  0  0  0  0
    6.1240   47.7110   47.5630 H   0  0  0  0  0  0  0  0  0  0  0  0
    7.3040   48.8510   47.6190 H   0  0  0  0  0  0  0  0  0  0  0  0
    8.2300   48.9750   45.2460 C   0  0  0  0  0  0  0  0  0  0  0  0
    7.7220   49.6760   44.0370 C   0  0  0  0  0  0  0  0  0  0  0  0
    7.6800   51.0830   43.8780 C   0  0  0  0  0  0  0  0  0  0  0  0
    8.0650   52.1400   44.7550 C   0  0  0  0  0  0  0  0  0  0  0  0
    7.9290   53.4580   44.3460 C   0  0  0  0  0  0  0  0  0  0  0  0
    7.4110   53.7330   43.0690 C   0  0  0  0  0  0  0  0  0  0  0  0
    7.0400   52.6960   42.2000 C   0  0  0  0  0  0  0  0  0  0  0  0
    7.1980   51.3840   42.6400 C   0  0  0  0  0  0  0  0  0  0  0  0
    6.9010   50.1790   41.9800 N   0  0  0  0  0  0  0  0  0  0  0  0
    6.5100   50.0880   41.0790 H   0  0  0  0  0  0  0  0  0  0  0  0
    7.2430   49.1480   42.8520 C   0  0  0  0  0  0  0  0  0  0  0  0
    7.9400   46.6320   46.1120 C   0  0  0  0  0  0  0  0  0  0  0  0
    7.7180   45.7780   44.8860 O   0  0  0  0  0  0  0  0  0  0  0  0
    8.1100   45.5990   43.6020 C   0  0  0  0  0  0  0  0  0  0  0  0
    7.4940   45.9530   42.4510 C   0  0  0  0  0  0  0  0  0  0  0  0
    8.2600   45.7630   41.2030 C   0  0  0  0  0  0  0  0  0  0  0  0
    9.5700   45.1510   41.2870 C   0  0  0  0  0  0  0  0  0  0  0  0
   10.0730   44.7710   42.4400 N   0  0  0  0  0  0  0  0  0  0  0  0
    9.3090   45.0040   43.5620 C   0  0  0  0  0  0  0  0  0  0  0  0
    7.8370   46.1530   39.8570 C   0  0  0  0  0  0  0  0  0  0  0  0
    7.2130   47.2720   39.5720 C   0  0  0  0  0  0  0  0  0  0  0  0
    6.7440   47.6620   38.2100 C   0  0  0  0  0  0  0  0  0  0  0  0
    6.7440   46.6820   37.2260 C   0  0  0  0  0  0  0  0  0  0  0  0
    6.3120   47.0460   35.9650 C   0  0  0  0  0  0  0  0  0  0  0  0
    5.8950   48.2750   35.6260 N   0  0  0  0  0  0  0  0  0  0  0  0
    5.9120   49.1950   36.6130 C   0  0  0  0  0  0  0  0  0  0  0  0
    6.3170   48.9590   37.8960 C   0  0  0  0  0  0  0  0  0  0  0  0
  1  6  1  1  0  0  0
  1 17  1  0  0  0  0
  1  2  1  0  0  0  0
  2  4  1  0  0  0  0
  2  5  1  0  0  0  0
  3  2  1  0  0  0  0
  7  6  1  0  0  0  0
  8  7  1  0  0  0  0
  8  9  2  0  0  0  0
 10  9  1  0  0  0  0
 11 10  2  0  0  0  0
 12 13  2  0  0  0  0
 12 11  1  0  0  0  0
 13  8  1  0  0  0  0
 14 13  1  0  0  0  0
 14 16  1  0  0  0  0
 15 14  1  0  0  0  0
 16  7  2  0  0  0  0
 18 17  1  0  0  0  0
 19 18  1  0  0  0  0
 20 19  2  0  0  0  0
 21 22  2  0  0  0  0
 21 20  1  0  0  0  0
 22 23  1  0  0  0  0
 23 24  2  0  0  0  0
 24 19  1  0  0  0  0
 25 21  1  0  0  0  0
 26 25  2  0  0  0  0
 27 26  1  0  0  0  0
 28 27  2  0  0  0  0
 29 28  1  0  0  0  0
 30 29  2  0  0  0  0
 30 31  1  0  0  0  0
 31 32  2  0  0  0  0
 32 27  1  0  0  0  0
M  END
>  <minimizedAffinity>
-8.64551735

$$$$

 OpenBabel12271914553D

 32 35  0  0  1  0  0  0  0  0999 V2000
    7.1560   49.2000   39.4890 C   0  0  1  0  0  0  0  0  0  0  0  0
    7.0010   50.3100   38.4120 N   0  0  0  0  0  0  0  0  0  0  0  0
    7.4060   51.1510   38.7630 H   0  0  0  0  0  0  0  0  0  0  0  0
    7.4610   50.0390   37.5280 H   0  0  0  0  0  0  0  0  0  0  0  0
    6.0300   50.4630   38.2120 H   0  0  0  0  0  0  0  0  0  0  0  0
    6.0770   49.4460   40.5500 C   0  0  0  0  0  0  0  0  0  0  0  0
    6.7280   49.8650   41.8190 C   0  0  0  0  0  0  0  0  0  0  0  0
    7.0300   51.2050   42.1680 C   0  0  0  0  0  0  0  0  0  0  0  0
    6.8290   52.4270   41.4610 C   0  0  0  0  0  0  0  0  0  0  0  0
    7.2130   53.6270   42.0400 C   0  0  0  0  0  0  0  0  0  0  0  0
    7.7950   53.6210   43.3190 C   0  0  0  0  0  0  0  0  0  0  0  0
    7.9850   52.4210   44.0210 C   0  0  0  0  0  0  0  0  0  0  0  0
    7.5810   51.2340   43.4130 C   0  0  0  0  0  0  0  0  0  0  0  0
    7.6640   49.9140   43.8880 N   0  0  0  0  0  0  0  0  0  0  0  0
    8.0490   49.6270   44.7500 H   0  0  0  0  0  0  0  0  0  0  0  0
    7.1230   49.0960   42.8990 C   0  0  0  0  0  0  0  0  0  0  0  0
    6.8130   47.8720   38.7320 C   0  0  0  0  0  0  0  0  0  0  0  0
    7.9290   46.9700   39.2070 O   0  0  0  0  0  0  0  0  0  0  0  0
    8.3190   46.1730   40.2290 C   0  0  0  0  0  0  0  0  0  0  0  0
    8.5280   46.4770   41.5320 C   0  0  0  0  0  0  0  0  0  0  0  0
    8.7940   45.3450   42.4410 C   0  0  0  0  0  0  0  0  0  0  0  0
    8.8850   44.0140   41.8750 C   0  0  0  0  0  0  0  0  0  0  0  0
    8.7350   43.8090   40.5860 N   0  0  0  0  0  0  0  0  0  0  0  0
    8.4660   44.9120   39.8060 C   0  0  0  0  0  0  0  0  0  0  0  0
    8.9630   45.4190   43.8940 C   0  0  0  0  0  0  0  0  0  0  0  0
    9.3000   46.5060   44.5450 C   0  0  0  0  0  0  0  0  0  0  0  0
    9.5120   46.5850   46.0200 C   0  0  0  0  0  0  0  0  0  0  0  0
    8.4570   46.2060   46.8410 C   0  0  0  0  0  0  0  0  0  0  0  0
    8.6550   46.2830   48.2070 C   0  0  0  0  0  0  0  0  0  0  0  0
    9.7880   46.6960   48.7930 N   0  0  0  0  0  0  0  0  0  0  0  0
   10.7850   47.0540   47.9570 C   0  0  0  0  0  0  0  0  0  0  0  0
   10.7130   47.0240   46.5940 C   0  0  0  0  0  0  0  0  0  0  0  0
  1 17  1  6  0  0  0
  1  6  1  0  0  0  0
  2  3  1  0  0  0  0
  2  1  1  0  0  0  0
  4  2  1  0  0  0  0
  5  2  1  0  0  0  0
  6  7  1  0  0  0  0
  7  8  1  0  0  0  0
  7 16  2  0  0  0  0
  8 13  2  0  0  0  0
  9 10  2  0  0  0  0
  9  8  1  0  0  0  0
 10 11  1  0  0  0  0
 11 12  2  0  0  0  0
 13 14  1  0  0  0  0
 13 12  1  0  0  0  0
 14 15  1  0  0  0  0
 16 14  1  0  0  0  0
 17 18  1  0  0  0  0
 18 19  1  0  0  0  0
 19 20  1  0  0  0  0
 20 21  2  0  0  0  0
 21 25  1  0  0  0  0
 22 21  1  0  0  0  0
 23 22  2  0  0  0  0
 24 19  2  0  0  0  0
 24 23  1  0  0  0  0
 25 26  2  0  0  0  0
 26 27  1  0  0  0  0
 27 32  2  0  0  0  0
 27 28  1  0  0  0  0
 28 29  2  0  0  0  0
 29 30  1  0  0  0  0
 31 30  2  0  0  0  0
 32 31  1  0  0  0  0
M  END
>  <minimizedAffinity>
-8.62029171

$$$$

 OpenBabel12271914553D

 32 35  0  0  1  0  0  0  0  0999 V2000
    8.6200   43.8340   41.5510 C   0  0  1  0  0  0  0  0  0  0  0  0
    8.1280   42.4980   40.9260 N   0  0  0  0  0  0  0  0  0  0  0  0
    8.1880   42.5720   39.9330 H   0  0  0  0  0  0  0  0  0  0  0  0
    8.6950   41.7010   41.2560 H   0  0  0  0  0  0  0  0  0  0  0  0
    7.1770   42.3220   41.1930 H   0  0  0  0  0  0  0  0  0  0  0  0
    7.4760   44.8460   41.4140 C   0  0  0  0  0  0  0  0  0  0  0  0
    7.7590   45.7490   40.2670 C   0  0  0  0  0  0  0  0  0  0  0  0
    7.2240   47.0520   40.1140 C   0  0  0  0  0  0  0  0  0  0  0  0
    6.3280   47.8020   40.9320 C   0  0  0  0  0  0  0  0  0  0  0  0
    5.9610   49.0840   40.5540 C   0  0  0  0  0  0  0  0  0  0  0  0
    6.4790   49.6280   39.3670 C   0  0  0  0  0  0  0  0  0  0  0  0
    7.3680   48.8970   38.5640 C   0  0  0  0  0  0  0  0  0  0  0  0
    7.7220   47.6150   38.9780 C   0  0  0  0  0  0  0  0  0  0  0  0
    8.5750   46.6820   38.3630 N   0  0  0  0  0  0  0  0  0  0  0  0
    9.0530   46.8030   37.5090 H   0  0  0  0  0  0  0  0  0  0  0  0
    8.5900   45.5530   39.1790 C   0  0  0  0  0  0  0  0  0  0  0  0
    8.8100   43.5060   43.0710 C   0  0  0  0  0  0  0  0  0  0  0  0
    9.4710   44.7730   43.5620 O   0  0  0  0  0  0  0  0  0  0  0  0
    9.2380   45.9350   44.2180 C   0  0  0  0  0  0  0  0  0  0  0  0
    8.9070   47.1530   43.7300 C   0  0  0  0  0  0  0  0  0  0  0  0
    8.5580   48.1910   44.7200 C   0  0  0  0  0  0  0  0  0  0  0  0
    8.6620   47.8620   46.1270 C   0  0  0  0  0  0  0  0  0  0  0  0
    9.0570   46.6720   46.5220 N   0  0  0  0  0  0  0  0  0  0  0  0
    9.3420   45.7510   45.5390 C   0  0  0  0  0  0  0  0  0  0  0  0
    8.0870   49.5460   44.4280 C   0  0  0  0  0  0  0  0  0  0  0  0
    7.9660   50.0430   43.2200 C   0  0  0  0  0  0  0  0  0  0  0  0
    7.5240   51.4350   42.9130 C   0  0  0  0  0  0  0  0  0  0  0  0
    6.7110   52.0710   43.8430 C   0  0  0  0  0  0  0  0  0  0  0  0
    6.3000   53.3580   43.5530 C   0  0  0  0  0  0  0  0  0  0  0  0
    6.6290   54.0340   42.4420 N   0  0  0  0  0  0  0  0  0  0  0  0
    7.4190   53.3780   41.5680 C   0  0  0  0  0  0  0  0  0  0  0  0
    7.8890   52.1070   41.7380 C   0  0  0  0  0  0  0  0  0  0  0  0
  1  6  1  1  0  0  0
  1 17  1  0  0  0  0
  2  5  1  0  0  0  0
  2  4  1  0  0  0  0
  2  1  1  0  0  0  0
  3  2  1  0  0  0  0
  7  6  1  0  0  0  0
  8  7  1  0  0  0  0
  8  9  2  0  0  0  0
 10  9  1  0  0  0  0
 11 10  2  0  0  0  0
 12 13  2  0  0  0  0
 12 11  1  0  0  0  0
 13  8  1  0  0  0  0
 14 13  1  0  0  0  0
 14 16  1  0  0  0  0
 15 14  1  0  0  0  0
 16  7  2  0  0  0  0
 17 18  1  0  0  0  0
 18 19  1  0  0  0  0
 19 24  1  0  0  0  0
 20 19  2  0  0  0  0
 20 21  1  0  0  0  0
 21 22  2  0  0  0  0
 22 23  1  0  0  0  0
 24 23  2  0  0  0  0
 25 21  1  0  0  0  0
 26 25  2  0  0  0  0
 27 26  1  0  0  0  0
 27 28  2  0  0  0  0
 29 28  1  0  0  0  0
 30 29  2  0  0  0  0
 31 32  2  0  0  0  0
 31 30  1  0  0  0  0
 32 27  1  0  0  0  0
M  END
>  <minimizedAffinity>
-8.55013847

$$$$
