
 OpenBabel12271915053D

 37 41  0  0  1  0  0  0  0  0999 V2000
    8.6110   47.6020   44.5220 C   0  0  2  0  0  0  0  0  0  0  0  0
    9.7690   47.9230   45.2980 O   0  0  0  0  0  0  0  0  0  0  0  0
    9.9130   47.3960   46.5130 C   0  0  0  0  0  0  0  0  0  0  0  0
   11.0470   47.2770   46.9600 O   0  0  0  0  0  0  0  0  0  0  0  0
    8.7000   46.9850   47.2290 C   0  0  1  0  0  0  0  0  0  0  0  0
    7.4140   47.1230   46.7250 C   0  0  0  0  0  0  0  0  0  0  0  0
    6.3170   46.8050   47.1510 O   0  0  0  0  0  0  0  0  0  0  0  0
    7.3270   47.7750   45.3260 C   0  0  0  0  0  0  0  0  0  0  0  0
    8.7620   46.1390   44.1020 C   0  0  0  0  0  0  0  0  0  0  0  0
    9.5590   45.9100   42.8240 C   0  0  0  0  0  0  0  0  0  0  0  0
    9.3750   44.4200   42.6060 C   0  0  0  0  0  0  0  0  0  0  0  0
    8.0170   44.0680   43.2150 C   0  0  0  0  0  0  0  0  0  0  0  0
    7.4900   45.3470   43.8450 C   0  0  0  0  0  0  0  0  0  0  0  0
    9.0010   46.3680   48.6110 C   0  0  0  0  0  0  0  0  0  0  0  0
    8.5040   47.1560   49.8230 C   0  0  0  0  0  0  0  0  0  0  0  0
    7.2120   47.6200   49.9870 N   0  0  0  0  0  0  0  0  0  0  0  0
    7.2480   48.2280   51.1750 C   0  0  0  0  0  0  0  0  0  0  0  0
    6.2610   48.9140   51.8780 N   0  0  0  0  0  0  0  0  0  0  0  0
    6.5190   49.4810   53.0190 C   0  0  0  0  0  0  0  0  0  0  0  0
    5.4490   50.2350   53.7960 C   0  0  0  0  0  0  0  0  0  0  0  0
    7.8780   49.4530   53.6060 C   0  0  0  0  0  0  0  0  0  0  0  0
    8.8100   48.8010   52.9240 C   0  0  0  0  0  0  0  0  0  0  0  0
   10.2260   48.7310   53.4140 C   0  0  0  0  0  0  0  0  0  0  0  0
    8.5080   48.1610   51.6870 N   0  0  0  0  0  0  0  0  0  0  0  0
    9.3300   47.5310   50.8200 N   0  0  0  0  0  0  0  0  0  0  0  0
    8.6710   48.4790   43.2380 C   0  0  0  0  0  0  0  0  0  0  0  0
    7.2620   48.8330   42.7800 C   0  0  0  0  0  0  0  0  0  0  0  0
    6.7150   51.7630   40.5220 C   0  0  0  0  0  0  0  0  0  0  0  0
    7.0520   52.8250   41.3040 N   0  0  0  0  0  0  0  0  0  0  0  0
    7.4580   52.5700   42.5600 C   0  0  0  0  0  0  0  0  0  0  0  0
    7.5250   51.2940   43.0710 C   0  0  0  0  0  0  0  0  0  0  0  0
    7.1810   50.2130   42.2590 C   0  0  0  0  0  0  0  0  0  0  0  0
    6.7570   50.4590   40.9620 C   0  0  0  0  0  0  0  0  0  0  0  0
    5.9780   50.7510   38.3510 C   0  0  0  0  0  0  0  0  0  0  0  0
    6.2720   52.0270   39.1130 C   0  0  0  0  0  0  0  0  0  0  0  0
    7.8420   53.7420   43.4300 C   0  0  0  0  0  0  0  0  0  0  0  0
    7.8980   53.3560   44.8940 C   0  0  0  0  0  0  0  0  0  0  0  0
  1 26  1  6  0  0  0
  1  2  1  0  0  0  0
  1  8  1  0  0  0  0
  2  3  1  0  0  0  0
  3  4  2  0  0  0  0
  3  5  1  0  0  0  0
  5 14  1  6  0  0  0
  6  7  2  0  0  0  0
  6  5  1  0  0  0  0
  8  6  1  0  0  0  0
  9  1  1  0  0  0  0
 10  9  1  0  0  0  0
 11 10  1  0  0  0  0
 11 12  1  0  0  0  0
 12 13  1  0  0  0  0
 13  9  1  0  0  0  0
 14 15  1  0  0  0  0
 15 16  2  0  0  0  0
 15 25  2  0  0  0  0
 16 17  2  0  0  0  0
 17 24  1  0  0  0  0
 17 18  2  0  0  0  0
 18 19  2  0  0  0  0
 19 21  1  0  0  0  0
 19 20  1  0  0  0  0
 22 23  1  0  0  0  0
 22 21  2  0  0  0  0
 24 22  1  0  0  0  0
 25 24  1  0  0  0  0
 27 26  1  0  0  0  0
 28 33  1  0  0  0  0
 28 29  2  0  0  0  0
 29 30  2  0  0  0  0
 30 31  1  0  0  0  0
 30 36  1  0  0  0  0
 32 27  1  0  0  0  0
 32 31  2  0  0  0  0
 33 32  1  0  0  0  0
 34 35  1  0  0  0  0
 35 28  1  0  0  0  0
 36 37  1  0  0  0  0
M  END
>  <minimizedAffinity>
-11.2848701

$$$$

 OpenBabel12271915053D

 37 41  0  0  1  0  0  0  0  0999 V2000
    8.7120   47.5440   44.5960 C   0  0  2  0  0  0  0  0  0  0  0  0
    9.8570   47.8020   45.4140 O   0  0  0  0  0  0  0  0  0  0  0  0
    9.9290   47.2680   46.6320 C   0  0  0  0  0  0  0  0  0  0  0  0
   11.0380   47.0870   47.1190 O   0  0  0  0  0  0  0  0  0  0  0  0
    8.6710   46.9220   47.3040 C   0  0  1  0  0  0  0  0  0  0  0  0
    7.4130   47.1290   46.7540 C   0  0  0  0  0  0  0  0  0  0  0  0
    6.2860   46.8700   47.1400 O   0  0  0  0  0  0  0  0  0  0  0  0
    7.4110   47.7860   45.3540 C   0  0  0  0  0  0  0  0  0  0  0  0
    8.7990   46.0750   44.1790 C   0  0  0  0  0  0  0  0  0  0  0  0
    9.6340   45.8040   42.9330 C   0  0  0  0  0  0  0  0  0  0  0  0
    9.3760   44.3260   42.7030 C   0  0  0  0  0  0  0  0  0  0  0  0
    7.9780   44.0500   43.2560 C   0  0  0  0  0  0  0  0  0  0  0  0
    7.4970   45.3540   43.8680 C   0  0  0  0  0  0  0  0  0  0  0  0
    8.8880   46.2890   48.6930 C   0  0  0  0  0  0  0  0  0  0  0  0
    8.4170   47.1150   49.8910 C   0  0  0  0  0  0  0  0  0  0  0  0
    7.1380   47.6170   50.0480 N   0  0  0  0  0  0  0  0  0  0  0  0
    7.1940   48.2470   51.2240 C   0  0  0  0  0  0  0  0  0  0  0  0
    6.2280   48.9740   51.9150 N   0  0  0  0  0  0  0  0  0  0  0  0
    6.5060   49.5560   53.0440 C   0  0  0  0  0  0  0  0  0  0  0  0
    5.4580   50.3540   53.8080 C   0  0  0  0  0  0  0  0  0  0  0  0
    7.8650   49.5040   53.6280 C   0  0  0  0  0  0  0  0  0  0  0  0
    8.7770   48.8130   52.9570 C   0  0  0  0  0  0  0  0  0  0  0  0
   10.1920   48.7140   53.4440 C   0  0  0  0  0  0  0  0  0  0  0  0
    8.4530   48.1570   51.7340 N   0  0  0  0  0  0  0  0  0  0  0  0
    9.2560   47.4870   50.8780 N   0  0  0  0  0  0  0  0  0  0  0  0
    8.8650   48.4180   43.3170 C   0  0  0  0  0  0  0  0  0  0  0  0
    7.4950   48.8570   42.8170 C   0  0  0  0  0  0  0  0  0  0  0  0
    7.6090   52.5570   43.3510 C   0  0  0  0  0  0  0  0  0  0  0  0
    7.2940   53.0570   42.1240 N   0  0  0  0  0  0  0  0  0  0  0  0
    7.0460   52.1780   41.1380 C   0  0  0  0  0  0  0  0  0  0  0  0
    7.1140   50.8160   41.3250 C   0  0  0  0  0  0  0  0  0  0  0  0
    7.4330   50.3150   42.5870 C   0  0  0  0  0  0  0  0  0  0  0  0
    7.6960   51.2080   43.6150 C   0  0  0  0  0  0  0  0  0  0  0  0
    7.5110   52.9540   45.8230 C   0  0  0  0  0  0  0  0  0  0  0  0
    7.8780   53.5220   44.4670 C   0  0  0  0  0  0  0  0  0  0  0  0
    6.6870   52.7250   39.7780 C   0  0  0  0  0  0  0  0  0  0  0  0
    6.0230   51.6760   38.9100 C   0  0  0  0  0  0  0  0  0  0  0  0
  1 26  1  6  0  0  0
  1  8  1  0  0  0  0
  1  2  1  0  0  0  0
  2  3  1  0  0  0  0
  3  4  2  0  0  0  0
  3  5  1  0  0  0  0
  5 14  1  6  0  0  0
  6  7  2  0  0  0  0
  6  5  1  0  0  0  0
  8  6  1  0  0  0  0
  9  1  1  0  0  0  0
 10  9  1  0  0  0  0
 11 10  1  0  0  0  0
 11 12  1  0  0  0  0
 12 13  1  0  0  0  0
 13  9  1  0  0  0  0
 14 15  1  0  0  0  0
 15 16  2  0  0  0  0
 15 25  2  0  0  0  0
 16 17  2  0  0  0  0
 17 24  1  0  0  0  0
 17 18  2  0  0  0  0
 18 19  2  0  0  0  0
 19 21  1  0  0  0  0
 19 20  1  0  0  0  0
 22 23  1  0  0  0  0
 22 21  2  0  0  0  0
 24 22  1  0  0  0  0
 25 24  1  0  0  0  0
 27 26  1  0  0  0  0
 28 33  1  0  0  0  0
 28 35  1  0  0  0  0
 29 28  2  0  0  0  0
 30 31  1  0  0  0  0
 30 29  2  0  0  0  0
 31 32  2  0  0  0  0
 32 27  1  0  0  0  0
 32 33  1  0  0  0  0
 35 34  1  0  0  0  0
 36 30  1  0  0  0  0
 37 36  1  0  0  0  0
M  END
>  <minimizedAffinity>
-11.2693987

$$$$

 OpenBabel12271915053D

 37 41  0  0  1  0  0  0  0  0999 V2000
    8.8070   47.5200   44.8060 C   0  0  2  0  0  0  0  0  0  0  0  0
   10.0750   47.7620   45.4220 O   0  0  0  0  0  0  0  0  0  0  0  0
   10.3710   47.1630   46.5750 C   0  0  0  0  0  0  0  0  0  0  0  0
   11.5520   46.9850   46.8470 O   0  0  0  0  0  0  0  0  0  0  0  0
    9.2580   46.7500   47.4370 C   0  0  1  0  0  0  0  0  0  0  0  0
    7.9190   46.9540   47.1310 C   0  0  0  0  0  0  0  0  0  0  0  0
    6.8830   46.6460   47.6940 O   0  0  0  0  0  0  0  0  0  0  0  0
    7.6580   47.6870   45.7950 C   0  0  0  0  0  0  0  0  0  0  0  0
    8.8410   46.0790   44.2940 C   0  0  0  0  0  0  0  0  0  0  0  0
    9.4990   45.8910   42.9320 C   0  0  0  0  0  0  0  0  0  0  0  0
    9.2170   44.4250   42.6530 C   0  0  0  0  0  0  0  0  0  0  0  0
    7.9080   44.1010   43.3730 C   0  0  0  0  0  0  0  0  0  0  0  0
    7.5120   45.3630   44.1220 C   0  0  0  0  0  0  0  0  0  0  0  0
    9.7290   46.0470   48.7270 C   0  0  0  0  0  0  0  0  0  0  0  0
    9.8050   44.5210   48.6730 C   0  0  0  0  0  0  0  0  0  0  0  0
   10.2610   43.7170   49.7020 N   0  0  0  0  0  0  0  0  0  0  0  0
   10.1350   42.4820   49.2100 C   0  0  0  0  0  0  0  0  0  0  0  0
   10.4550   41.2450   49.7630 N   0  0  0  0  0  0  0  0  0  0  0  0
   10.2940   40.1450   49.0880 C   0  0  0  0  0  0  0  0  0  0  0  0
   10.6400   38.7870   49.6820 C   0  0  0  0  0  0  0  0  0  0  0  0
    9.7990   40.1600   47.6930 C   0  0  0  0  0  0  0  0  0  0  0  0
    9.5030   41.3450   47.1760 C   0  0  0  0  0  0  0  0  0  0  0  0
    9.0180   41.4790   45.7640 C   0  0  0  0  0  0  0  0  0  0  0  0
    9.6590   42.5410   47.9360 N   0  0  0  0  0  0  0  0  0  0  0  0
    9.4930   43.8280   47.5600 N   0  0  0  0  0  0  0  0  0  0  0  0
    8.7170   48.4660   43.5730 C   0  0  0  0  0  0  0  0  0  0  0  0
    7.2600   48.7880   43.2670 C   0  0  0  0  0  0  0  0  0  0  0  0
    7.1390   52.4230   42.3970 C   0  0  0  0  0  0  0  0  0  0  0  0
    6.8380   52.4150   41.0700 N   0  0  0  0  0  0  0  0  0  0  0  0
    6.6740   51.2210   40.4750 C   0  0  0  0  0  0  0  0  0  0  0  0
    6.8160   50.0310   41.1530 C   0  0  0  0  0  0  0  0  0  0  0  0
    7.1210   50.0520   42.5140 C   0  0  0  0  0  0  0  0  0  0  0  0
    7.2960   51.2750   43.1420 C   0  0  0  0  0  0  0  0  0  0  0  0
    8.2030   53.6540   44.3030 C   0  0  0  0  0  0  0  0  0  0  0  0
    7.3140   53.7480   43.0810 C   0  0  0  0  0  0  0  0  0  0  0  0
    6.3310   51.2040   39.0060 C   0  0  0  0  0  0  0  0  0  0  0  0
    6.1820   49.7900   38.4830 C   0  0  0  0  0  0  0  0  0  0  0  0
  1 26  1  6  0  0  0
  1  2  1  0  0  0  0
  1  8  1  0  0  0  0
  2  3  1  0  0  0  0
  3  4  2  0  0  0  0
  3  5  1  0  0  0  0
  5 14  1  6  0  0  0
  6  5  1  0  0  0  0
  6  7  2  0  0  0  0
  8  6  1  0  0  0  0
  9  1  1  0  0  0  0
 10  9  1  0  0  0  0
 11 10  1  0  0  0  0
 11 12  1  0  0  0  0
 12 13  1  0  0  0  0
 13  9  1  0  0  0  0
 15 14  1  0  0  0  0
 15 16  2  0  0  0  0
 17 16  2  0  0  0  0
 17 18  2  0  0  0  0
 19 20  1  0  0  0  0
 19 18  2  0  0  0  0
 21 19  1  0  0  0  0
 22 21  2  0  0  0  0
 22 24  1  0  0  0  0
 23 22  1  0  0  0  0
 24 17  1  0  0  0  0
 25 24  1  0  0  0  0
 25 15  2  0  0  0  0
 27 26  1  0  0  0  0
 28 35  1  0  0  0  0
 28 33  1  0  0  0  0
 29 28  2  0  0  0  0
 30 29  2  0  0  0  0
 30 31  1  0  0  0  0
 31 32  2  0  0  0  0
 32 33  1  0  0  0  0
 32 27  1  0  0  0  0
 35 34  1  0  0  0  0
 36 30  1  0  0  0  0
 37 36  1  0  0  0  0
M  END
>  <minimizedAffinity>
-10.4460926

$$$$

 OpenBabel12271915053D

 37 41  0  0  1  0  0  0  0  0999 V2000
    9.0250   47.8670   45.2510 C   0  0  2  0  0  0  0  0  0  0  0  0
   10.2830   47.8660   45.9310 O   0  0  0  0  0  0  0  0  0  0  0  0
   10.4820   47.0280   46.9470 C   0  0  0  0  0  0  0  0  0  0  0  0
   11.6300   46.6910   47.2040 O   0  0  0  0  0  0  0  0  0  0  0  0
    9.3030   46.5570   47.6850 C   0  0  1  0  0  0  0  0  0  0  0  0
    8.0010   46.9390   47.3980 C   0  0  0  0  0  0  0  0  0  0  0  0
    6.9200   46.6230   47.8650 O   0  0  0  0  0  0  0  0  0  0  0  0
    7.8560   47.9410   46.2280 C   0  0  0  0  0  0  0  0  0  0  0  0
    8.9550   46.5570   44.4640 C   0  0  0  0  0  0  0  0  0  0  0  0
    9.4180   46.6480   43.0140 C   0  0  0  0  0  0  0  0  0  0  0  0
    9.0670   45.2670   42.4910 C   0  0  0  0  0  0  0  0  0  0  0  0
    7.8590   44.8010   43.3050 C   0  0  0  0  0  0  0  0  0  0  0  0
    7.5980   45.8860   44.3350 C   0  0  0  0  0  0  0  0  0  0  0  0
    9.6610   45.5740   48.8190 C   0  0  0  0  0  0  0  0  0  0  0  0
    9.8930   44.1210   48.4030 C   0  0  0  0  0  0  0  0  0  0  0  0
   10.7500   43.2450   49.0430 N   0  0  0  0  0  0  0  0  0  0  0  0
   10.6160   42.1140   48.3460 C   0  0  0  0  0  0  0  0  0  0  0  0
   11.2400   40.8780   48.4860 N   0  0  0  0  0  0  0  0  0  0  0  0
   10.9970   39.9040   47.6600 C   0  0  0  0  0  0  0  0  0  0  0  0
   11.6740   38.5480   47.8030 C   0  0  0  0  0  0  0  0  0  0  0  0
   10.0750   40.0740   46.5140 C   0  0  0  0  0  0  0  0  0  0  0  0
    9.4900   41.2590   46.3880 C   0  0  0  0  0  0  0  0  0  0  0  0
    8.5580   41.5490   45.2510 C   0  0  0  0  0  0  0  0  0  0  0  0
    9.7450   42.3090   47.3170 N   0  0  0  0  0  0  0  0  0  0  0  0
    9.3170   43.5910   47.3060 N   0  0  0  0  0  0  0  0  0  0  0  0
    9.0650   49.0410   44.2300 C   0  0  0  0  0  0  0  0  0  0  0  0
    7.7070   49.7280   44.1700 C   0  0  0  0  0  0  0  0  0  0  0  0
    6.6380   49.6170   40.5880 C   0  0  0  0  0  0  0  0  0  0  0  0
    6.7030   50.9210   40.2040 N   0  0  0  0  0  0  0  0  0  0  0  0
    7.0990   51.8220   41.1200 C   0  0  0  0  0  0  0  0  0  0  0  0
    7.4180   51.4710   42.4130 C   0  0  0  0  0  0  0  0  0  0  0  0
    7.3520   50.1310   42.7940 C   0  0  0  0  0  0  0  0  0  0  0  0
    6.9420   49.1890   41.8620 C   0  0  0  0  0  0  0  0  0  0  0  0
    6.5810   48.9940   38.1620 C   0  0  0  0  0  0  0  0  0  0  0  0
    6.2100   48.5960   39.5750 C   0  0  0  0  0  0  0  0  0  0  0  0
    7.1820   53.2690   40.6990 C   0  0  0  0  0  0  0  0  0  0  0  0
    7.8240   54.1260   41.7710 C   0  0  0  0  0  0  0  0  0  0  0  0
  1 26  1  6  0  0  0
  1  2  1  0  0  0  0
  1  8  1  0  0  0  0
  2  3  1  0  0  0  0
  3  4  2  0  0  0  0
  3  5  1  0  0  0  0
  5 14  1  6  0  0  0
  6  5  1  0  0  0  0
  6  7  2  0  0  0  0
  8  6  1  0  0  0  0
  9  1  1  0  0  0  0
 10  9  1  0  0  0  0
 11 10  1  0  0  0  0
 11 12  1  0  0  0  0
 12 13  1  0  0  0  0
 13  9  1  0  0  0  0
 15 14  1  0  0  0  0
 15 16  2  0  0  0  0
 17 18  2  0  0  0  0
 17 16  2  0  0  0  0
 19 20  1  0  0  0  0
 19 18  2  0  0  0  0
 21 19  1  0  0  0  0
 22 21  2  0  0  0  0
 22 24  1  0  0  0  0
 23 22  1  0  0  0  0
 24 17  1  0  0  0  0
 25 24  1  0  0  0  0
 25 15  2  0  0  0  0
 27 26  1  0  0  0  0
 28 33  1  0  0  0  0
 29 28  2  0  0  0  0
 29 30  2  0  0  0  0
 30 31  1  0  0  0  0
 31 32  2  0  0  0  0
 32 27  1  0  0  0  0
 33 32  1  0  0  0  0
 34 35  1  0  0  0  0
 35 28  1  0  0  0  0
 36 30  1  0  0  0  0
 36 37  1  0  0  0  0
M  END
>  <minimizedAffinity>
-10.4241495

$$$$

 OpenBabel12271915053D

 37 41  0  0  1  0  0  0  0  0999 V2000
    9.2820   46.6190   49.1150 C   0  0  2  0  0  0  0  0  0  0  0  0
    7.9480   47.1220   48.9980 O   0  0  0  0  0  0  0  0  0  0  0  0
    7.3790   47.2050   47.7970 C   0  0  0  0  0  0  0  0  0  0  0  0
    6.1570   47.1710   47.7320 O   0  0  0  0  0  0  0  0  0  0  0  0
    8.2600   47.3210   46.6290 C   0  0  1  0  0  0  0  0  0  0  0  0
    9.6460   47.3630   46.7000 C   0  0  0  0  0  0  0  0  0  0  0  0
   10.5190   47.4130   45.8510 O   0  0  0  0  0  0  0  0  0  0  0  0
   10.2290   47.2980   48.1310 C   0  0  0  0  0  0  0  0  0  0  0  0
    9.2100   45.1220   48.8100 C   0  0  0  0  0  0  0  0  0  0  0  0
    8.8540   44.2360   49.9980 C   0  0  0  0  0  0  0  0  0  0  0  0
    9.0340   42.8470   49.4120 C   0  0  0  0  0  0  0  0  0  0  0  0
   10.1100   42.9790   48.3340 C   0  0  0  0  0  0  0  0  0  0  0  0
   10.4620   44.4550   48.2630 C   0  0  0  0  0  0  0  0  0  0  0  0
    7.4840   47.3840   45.2970 C   0  0  0  0  0  0  0  0  0  0  0  0
    7.4570   48.7420   44.5960 C   0  0  0  0  0  0  0  0  0  0  0  0
    7.4620   48.9220   43.2250 N   0  0  0  0  0  0  0  0  0  0  0  0
    7.4220   50.2490   43.0860 C   0  0  0  0  0  0  0  0  0  0  0  0
    7.4330   51.0460   41.9440 N   0  0  0  0  0  0  0  0  0  0  0  0
    7.4340   52.3440   42.0300 C   0  0  0  0  0  0  0  0  0  0  0  0
    7.4470   53.2250   40.7890 C   0  0  0  0  0  0  0  0  0  0  0  0
    7.4590   53.0320   43.3400 C   0  0  0  0  0  0  0  0  0  0  0  0
    7.4530   52.2610   44.4200 C   0  0  0  0  0  0  0  0  0  0  0  0
    7.5020   52.8520   45.7980 C   0  0  0  0  0  0  0  0  0  0  0  0
    7.4250   50.8400   44.3120 N   0  0  0  0  0  0  0  0  0  0  0  0
    7.5000   49.9020   45.2810 N   0  0  0  0  0  0  0  0  0  0  0  0
    9.7000   46.7880   50.6050 C   0  0  0  0  0  0  0  0  0  0  0  0
    9.0180   48.0110   51.2030 C   0  0  0  0  0  0  0  0  0  0  0  0
    6.9720   48.2750   54.3230 C   0  0  0  0  0  0  0  0  0  0  0  0
    7.2870   47.1350   54.9980 N   0  0  0  0  0  0  0  0  0  0  0  0
    8.1680   46.2960   54.4270 C   0  0  0  0  0  0  0  0  0  0  0  0
    8.7360   46.5430   53.1980 C   0  0  0  0  0  0  0  0  0  0  0  0
    8.4080   47.7150   52.5160 C   0  0  0  0  0  0  0  0  0  0  0  0
    7.4980   48.5910   53.0900 C   0  0  0  0  0  0  0  0  0  0  0  0
    4.6810   49.2840   54.2060 C   0  0  0  0  0  0  0  0  0  0  0  0
    5.9990   49.2300   54.9500 C   0  0  0  0  0  0  0  0  0  0  0  0
    8.5290   45.0350   55.1740 C   0  0  0  0  0  0  0  0  0  0  0  0
    8.5190   43.8240   54.2650 C   0  0  0  0  0  0  0  0  0  0  0  0
  1 26  1  1  0  0  0
  2  1  1  0  0  0  0
  3  2  1  0  0  0  0
  4  3  2  0  0  0  0
  5 14  1  6  0  0  0
  5  6  1  0  0  0  0
  5  3  1  0  0  0  0
  6  8  1  0  0  0  0
  7  6  2  0  0  0  0
  8  1  1  0  0  0  0
  9  1  1  0  0  0  0
  9 10  1  0  0  0  0
 11 10  1  0  0  0  0
 12 11  1  0  0  0  0
 13 12  1  0  0  0  0
 13  9  1  0  0  0  0
 15 25  2  0  0  0  0
 15 14  1  0  0  0  0
 16 15  2  0  0  0  0
 17 16  2  0  0  0  0
 17 24  1  0  0  0  0
 18 19  2  0  0  0  0
 18 17  2  0  0  0  0
 19 21  1  0  0  0  0
 20 19  1  0  0  0  0
 21 22  2  0  0  0  0
 22 23  1  0  0  0  0
 24 22  1  0  0  0  0
 24 25  1  0  0  0  0
 26 27  1  0  0  0  0
 27 32  1  0  0  0  0
 28 35  1  0  0  0  0
 28 29  2  0  0  0  0
 30 29  2  0  0  0  0
 30 36  1  0  0  0  0
 31 30  1  0  0  0  0
 32 33  1  0  0  0  0
 32 31  2  0  0  0  0
 33 28  1  0  0  0  0
 34 35  1  0  0  0  0
 37 36  1  0  0  0  0
M  END
>  <minimizedAffinity>
-9.91230774

$$$$

 OpenBabel12271915053D

 37 41  0  0  1  0  0  0  0  0999 V2000
    9.1920   46.6120   49.0330 C   0  0  2  0  0  0  0  0  0  0  0  0
    7.8590   47.1120   48.8910 O   0  0  0  0  0  0  0  0  0  0  0  0
    7.3200   47.2130   47.6770 C   0  0  0  0  0  0  0  0  0  0  0  0
    6.1000   47.1760   47.5810 O   0  0  0  0  0  0  0  0  0  0  0  0
    8.2300   47.3530   46.5350 C   0  0  1  0  0  0  0  0  0  0  0  0
    9.6130   47.3990   46.6410 C   0  0  0  0  0  0  0  0  0  0  0  0
   10.5080   47.4660   45.8160 O   0  0  0  0  0  0  0  0  0  0  0  0
   10.1610   47.3110   48.0850 C   0  0  0  0  0  0  0  0  0  0  0  0
    9.1340   45.1200   48.7020 C   0  0  0  0  0  0  0  0  0  0  0  0
    8.8140   44.2070   49.8790 C   0  0  0  0  0  0  0  0  0  0  0  0
    9.0000   42.8320   49.2640 C   0  0  0  0  0  0  0  0  0  0  0  0
   10.0520   42.9990   48.1670 C   0  0  0  0  0  0  0  0  0  0  0  0
   10.3830   44.4810   48.1180 C   0  0  0  0  0  0  0  0  0  0  0  0
    7.4880   47.4350   45.1850 C   0  0  0  0  0  0  0  0  0  0  0  0
    7.4620   48.8080   44.5120 C   0  0  0  0  0  0  0  0  0  0  0  0
    7.4690   49.0170   43.1460 N   0  0  0  0  0  0  0  0  0  0  0  0
    7.4290   50.3460   43.0350 C   0  0  0  0  0  0  0  0  0  0  0  0
    7.4410   51.1670   41.9100 N   0  0  0  0  0  0  0  0  0  0  0  0
    7.4420   52.4630   42.0240 C   0  0  0  0  0  0  0  0  0  0  0  0
    7.4570   53.3710   40.8010 C   0  0  0  0  0  0  0  0  0  0  0  0
    7.4660   53.1230   43.3480 C   0  0  0  0  0  0  0  0  0  0  0  0
    7.4590   52.3300   44.4120 C   0  0  0  0  0  0  0  0  0  0  0  0
    7.5070   52.8910   45.8010 C   0  0  0  0  0  0  0  0  0  0  0  0
    7.4310   50.9120   44.2730 N   0  0  0  0  0  0  0  0  0  0  0  0
    7.5050   49.9530   45.2220 N   0  0  0  0  0  0  0  0  0  0  0  0
    9.5710   46.7570   50.5360 C   0  0  0  0  0  0  0  0  0  0  0  0
    8.8200   47.9280   51.1540 C   0  0  0  0  0  0  0  0  0  0  0  0
    8.1920   46.1850   54.4030 C   0  0  0  0  0  0  0  0  0  0  0  0
    7.3620   47.0420   55.0600 N   0  0  0  0  0  0  0  0  0  0  0  0
    7.0150   48.1780   54.4310 C   0  0  0  0  0  0  0  0  0  0  0  0
    7.4770   48.5000   53.1750 C   0  0  0  0  0  0  0  0  0  0  0  0
    8.3240   47.6120   52.5100 C   0  0  0  0  0  0  0  0  0  0  0  0
    8.6950   46.4380   53.1460 C   0  0  0  0  0  0  0  0  0  0  0  0
    8.8280   43.7800   54.1020 C   0  0  0  0  0  0  0  0  0  0  0  0
    8.5810   44.9060   55.0850 C   0  0  0  0  0  0  0  0  0  0  0  0
    6.0880   49.1280   55.1490 C   0  0  0  0  0  0  0  0  0  0  0  0
    4.7830   49.3090   54.4000 C   0  0  0  0  0  0  0  0  0  0  0  0
  1 26  1  1  0  0  0
  2  1  1  0  0  0  0
  3  2  1  0  0  0  0
  4  3  2  0  0  0  0
  5 14  1  6  0  0  0
  5  6  1  0  0  0  0
  5  3  1  0  0  0  0
  6  8  1  0  0  0  0
  7  6  2  0  0  0  0
  8  1  1  0  0  0  0
  9  1  1  0  0  0  0
  9 10  1  0  0  0  0
 11 10  1  0  0  0  0
 12 11  1  0  0  0  0
 13 12  1  0  0  0  0
 13  9  1  0  0  0  0
 15 14  1  0  0  0  0
 15 25  2  0  0  0  0
 16 15  2  0  0  0  0
 17 16  2  0  0  0  0
 17 24  1  0  0  0  0
 18 19  2  0  0  0  0
 18 17  2  0  0  0  0
 19 21  1  0  0  0  0
 20 19  1  0  0  0  0
 21 22  2  0  0  0  0
 22 23  1  0  0  0  0
 24 22  1  0  0  0  0
 24 25  1  0  0  0  0
 26 27  1  0  0  0  0
 27 32  1  0  0  0  0
 28 29  2  0  0  0  0
 28 35  1  0  0  0  0
 30 29  2  0  0  0  0
 30 36  1  0  0  0  0
 31 30  1  0  0  0  0
 32 33  1  0  0  0  0
 32 31  2  0  0  0  0
 33 28  1  0  0  0  0
 34 35  1  0  0  0  0
 37 36  1  0  0  0  0
M  END
>  <minimizedAffinity>
-9.9100647

$$$$

 OpenBabel12271915053D

 37 41  0  0  1  0  0  0  0  0999 V2000
    9.0760   46.1480   45.4330 C   0  0  2  0  0  0  0  0  0  0  0  0
    9.2100   44.7460   45.6820 O   0  0  0  0  0  0  0  0  0  0  0  0
    9.5040   44.3220   46.9100 C   0  0  0  0  0  0  0  0  0  0  0  0
    9.1620   43.1900   47.2280 O   0  0  0  0  0  0  0  0  0  0  0  0
   10.2120   45.2470   47.8030 C   0  0  1  0  0  0  0  0  0  0  0  0
   10.6030   46.5290   47.4430 C   0  0  0  0  0  0  0  0  0  0  0  0
   11.1480   47.4330   48.0530 O   0  0  0  0  0  0  0  0  0  0  0  0
   10.2570   46.9350   45.9910 C   0  0  0  0  0  0  0  0  0  0  0  0
    7.7880   46.5930   46.1260 C   0  0  0  0  0  0  0  0  0  0  0  0
    6.5630   46.6780   45.2230 C   0  0  0  0  0  0  0  0  0  0  0  0
    5.5340   47.2940   46.1540 C   0  0  0  0  0  0  0  0  0  0  0  0
    6.3210   48.1570   47.1410 C   0  0  0  0  0  0  0  0  0  0  0  0
    7.7890   47.9500   46.8100 C   0  0  0  0  0  0  0  0  0  0  0  0
   10.4720   44.6490   49.2010 C   0  0  0  0  0  0  0  0  0  0  0  0
    9.9190   45.4420   50.3860 C   0  0  0  0  0  0  0  0  0  0  0  0
   10.6800   46.2200   51.2380 N   0  0  0  0  0  0  0  0  0  0  0  0
    9.7820   46.7150   52.0930 C   0  0  0  0  0  0  0  0  0  0  0  0
    9.9370   47.5470   53.1980 N   0  0  0  0  0  0  0  0  0  0  0  0
    8.9210   47.8800   53.9370 C   0  0  0  0  0  0  0  0  0  0  0  0
    9.0790   48.7890   55.1490 C   0  0  0  0  0  0  0  0  0  0  0  0
    7.5610   47.3640   53.6610 C   0  0  0  0  0  0  0  0  0  0  0  0
    7.4270   46.5670   52.6090 C   0  0  0  0  0  0  0  0  0  0  0  0
    6.1000   45.9680   52.2510 C   0  0  0  0  0  0  0  0  0  0  0  0
    8.5450   46.2320   51.7910 N   0  0  0  0  0  0  0  0  0  0  0  0
    8.6200   45.3810   50.7430 N   0  0  0  0  0  0  0  0  0  0  0  0
    8.8800   46.3160   43.8980 C   0  0  0  0  0  0  0  0  0  0  0  0
    9.5920   47.5720   43.4140 C   0  0  0  0  0  0  0  0  0  0  0  0
    6.9060   49.5010   41.6650 C   0  0  0  0  0  0  0  0  0  0  0  0
    6.8640   50.6720   42.3580 N   0  0  0  0  0  0  0  0  0  0  0  0
    7.7170   50.8190   43.3870 C   0  0  0  0  0  0  0  0  0  0  0  0
    8.6010   49.8330   43.7610 C   0  0  0  0  0  0  0  0  0  0  0  0
    8.6390   48.6390   43.0420 C   0  0  0  0  0  0  0  0  0  0  0  0
    7.7640   48.4690   41.9800 C   0  0  0  0  0  0  0  0  0  0  0  0
    6.5890   49.7600   39.1930 C   0  0  0  0  0  0  0  0  0  0  0  0
    5.9710   49.3240   40.5060 C   0  0  0  0  0  0  0  0  0  0  0  0
    7.6820   52.1180   44.1540 C   0  0  0  0  0  0  0  0  0  0  0  0
    6.9640   51.9660   45.4790 C   0  0  0  0  0  0  0  0  0  0  0  0
  1 26  1  6  0  0  0
  1  2  1  0  0  0  0
  1  8  1  0  0  0  0
  1  9  1  0  0  0  0
  2  3  1  0  0  0  0
  3  4  2  0  0  0  0
  3  5  1  0  0  0  0
  5 14  1  1  0  0  0
  6  5  1  0  0  0  0
  6  7  2  0  0  0  0
  8  6  1  0  0  0  0
  9 13  1  0  0  0  0
 10  9  1  0  0  0  0
 10 11  1  0  0  0  0
 11 12  1  0  0  0  0
 13 12  1  0  0  0  0
 14 15  1  0  0  0  0
 15 25  2  0  0  0  0
 15 16  2  0  0  0  0
 16 17  2  0  0  0  0
 17 18  2  0  0  0  0
 18 19  2  0  0  0  0
 19 20  1  0  0  0  0
 21 19  1  0  0  0  0
 22 21  2  0  0  0  0
 23 22  1  0  0  0  0
 24 17  1  0  0  0  0
 24 22  1  0  0  0  0
 25 24  1  0  0  0  0
 27 26  1  0  0  0  0
 28 33  1  0  0  0  0
 28 29  2  0  0  0  0
 29 30  2  0  0  0  0
 30 31  1  0  0  0  0
 30 36  1  0  0  0  0
 32 27  1  0  0  0  0
 32 31  2  0  0  0  0
 33 32  1  0  0  0  0
 34 35  1  0  0  0  0
 35 28  1  0  0  0  0
 36 37  1  0  0  0  0
M  END
>  <minimizedAffinity>
-9.79975891

$$$$

 OpenBabel12271915053D

 37 41  0  0  1  0  0  0  0  0999 V2000
    9.1100   46.2390   45.4870 C   0  0  2  0  0  0  0  0  0  0  0  0
    9.2510   44.8220   45.6200 O   0  0  0  0  0  0  0  0  0  0  0  0
    9.5280   44.2970   46.8120 C   0  0  0  0  0  0  0  0  0  0  0  0
    9.1910   43.1400   47.0280 O   0  0  0  0  0  0  0  0  0  0  0  0
   10.2130   45.1490   47.7910 C   0  0  1  0  0  0  0  0  0  0  0  0
   10.5990   46.4600   47.5480 C   0  0  0  0  0  0  0  0  0  0  0  0
   11.1270   47.3130   48.2410 O   0  0  0  0  0  0  0  0  0  0  0  0
   10.2740   46.9850   46.1300 C   0  0  0  0  0  0  0  0  0  0  0  0
    7.8060   46.6140   46.1920 C   0  0  0  0  0  0  0  0  0  0  0  0
    6.5930   46.7580   45.2800 C   0  0  0  0  0  0  0  0  0  0  0  0
    5.5440   47.2880   46.2400 C   0  0  0  0  0  0  0  0  0  0  0  0
    6.3060   48.0790   47.3040 C   0  0  0  0  0  0  0  0  0  0  0  0
    7.7810   47.9130   46.9810 C   0  0  0  0  0  0  0  0  0  0  0  0
   10.4550   44.4380   49.1380 C   0  0  0  0  0  0  0  0  0  0  0  0
    9.7680   45.0530   50.3580 C   0  0  0  0  0  0  0  0  0  0  0  0
    8.5960   45.7850   50.3180 N   0  0  0  0  0  0  0  0  0  0  0  0
    8.3810   46.0990   51.5970 C   0  0  0  0  0  0  0  0  0  0  0  0
    7.3720   46.8490   52.1940 N   0  0  0  0  0  0  0  0  0  0  0  0
    7.3720   47.0780   53.4750 C   0  0  0  0  0  0  0  0  0  0  0  0
    6.2740   47.8990   54.1380 C   0  0  0  0  0  0  0  0  0  0  0  0
    8.4590   46.5830   54.3490 C   0  0  0  0  0  0  0  0  0  0  0  0
    9.4170   45.8740   53.7670 C   0  0  0  0  0  0  0  0  0  0  0  0
   10.5790   45.3450   54.5530 C   0  0  0  0  0  0  0  0  0  0  0  0
    9.3910   45.6080   52.3670 N   0  0  0  0  0  0  0  0  0  0  0  0
   10.3070   44.9860   51.5920 N   0  0  0  0  0  0  0  0  0  0  0  0
    8.9370   46.5350   43.9680 C   0  0  0  0  0  0  0  0  0  0  0  0
    9.6630   47.8220   43.6000 C   0  0  0  0  0  0  0  0  0  0  0  0
    7.7410   51.0140   43.9200 C   0  0  0  0  0  0  0  0  0  0  0  0
    6.9290   50.9990   42.8280 N   0  0  0  0  0  0  0  0  0  0  0  0
    7.0170   49.9420   42.0010 C   0  0  0  0  0  0  0  0  0  0  0  0
    7.8980   48.9060   42.2150 C   0  0  0  0  0  0  0  0  0  0  0  0
    8.7220   48.9310   43.3400 C   0  0  0  0  0  0  0  0  0  0  0  0
    8.6470   50.0150   44.2010 C   0  0  0  0  0  0  0  0  0  0  0  0
    8.0010   53.4920   44.1920 C   0  0  0  0  0  0  0  0  0  0  0  0
    7.6490   52.1790   44.8610 C   0  0  0  0  0  0  0  0  0  0  0  0
    6.1140   49.9140   40.7920 C   0  0  0  0  0  0  0  0  0  0  0  0
    6.2010   51.2010   39.9980 C   0  0  0  0  0  0  0  0  0  0  0  0
  1 26  1  6  0  0  0
  1  2  1  0  0  0  0
  1  8  1  0  0  0  0
  1  9  1  0  0  0  0
  2  3  1  0  0  0  0
  3  4  2  0  0  0  0
  3  5  1  0  0  0  0
  5 14  1  1  0  0  0
  6  5  1  0  0  0  0
  6  7  2  0  0  0  0
  8  6  1  0  0  0  0
  9 13  1  0  0  0  0
 10  9  1  0  0  0  0
 10 11  1  0  0  0  0
 11 12  1  0  0  0  0
 13 12  1  0  0  0  0
 14 15  1  0  0  0  0
 15 25  2  0  0  0  0
 16 15  2  0  0  0  0
 16 17  2  0  0  0  0
 17 18  2  0  0  0  0
 17 24  1  0  0  0  0
 18 19  2  0  0  0  0
 19 20  1  0  0  0  0
 19 21  1  0  0  0  0
 22 21  2  0  0  0  0
 22 23  1  0  0  0  0
 24 22  1  0  0  0  0
 25 24  1  0  0  0  0
 27 26  1  0  0  0  0
 28 33  1  0  0  0  0
 28 35  1  0  0  0  0
 29 28  2  0  0  0  0
 30 31  1  0  0  0  0
 30 29  2  0  0  0  0
 31 32  2  0  0  0  0
 32 27  1  0  0  0  0
 32 33  1  0  0  0  0
 34 35  1  0  0  0  0
 36 30  1  0  0  0  0
 37 36  1  0  0  0  0
M  END
>  <minimizedAffinity>
-9.79876614

$$$$

 OpenBabel12271915053D

 37 41  0  0  1  0  0  0  0  0999 V2000
    8.4780   46.6980   45.5120 C   0  0  2  0  0  0  0  0  0  0  0  0
    7.5430   46.4540   46.5660 O   0  0  0  0  0  0  0  0  0  0  0  0
    7.8300   46.8520   47.8050 C   0  0  0  0  0  0  0  0  0  0  0  0
    6.9010   47.0770   48.5700 O   0  0  0  0  0  0  0  0  0  0  0  0
    9.2450   47.0030   48.1640 C   0  0  1  0  0  0  0  0  0  0  0  0
   10.2990   46.7460   47.3000 C   0  0  0  0  0  0  0  0  0  0  0  0
   11.5090   46.8550   47.4090 O   0  0  0  0  0  0  0  0  0  0  0  0
    9.8860   46.2540   45.8930 C   0  0  0  0  0  0  0  0  0  0  0  0
    8.4640   48.2070   45.2590 C   0  0  0  0  0  0  0  0  0  0  0  0
    7.2100   48.7380   44.5760 C   0  0  0  0  0  0  0  0  0  0  0  0
    7.5840   50.1870   44.3250 C   0  0  0  0  0  0  0  0  0  0  0  0
    9.1040   50.2080   44.1580 C   0  0  0  0  0  0  0  0  0  0  0  0
    9.5780   48.7860   44.4020 C   0  0  0  0  0  0  0  0  0  0  0  0
    9.4450   47.4920   49.6140 C   0  0  0  0  0  0  0  0  0  0  0  0
    9.8220   46.4220   50.6390 C   0  0  0  0  0  0  0  0  0  0  0  0
   10.9130   45.5800   50.5360 N   0  0  0  0  0  0  0  0  0  0  0  0
   10.8420   44.8410   51.6450 C   0  0  0  0  0  0  0  0  0  0  0  0
   11.6470   43.7990   52.0990 N   0  0  0  0  0  0  0  0  0  0  0  0
   11.3730   43.1710   53.2050 C   0  0  0  0  0  0  0  0  0  0  0  0
   12.2440   42.0290   53.7100 C   0  0  0  0  0  0  0  0  0  0  0  0
   10.1790   43.5100   54.0110 C   0  0  0  0  0  0  0  0  0  0  0  0
    9.4180   44.5010   53.5650 C   0  0  0  0  0  0  0  0  0  0  0  0
    8.1710   44.9110   54.2900 C   0  0  0  0  0  0  0  0  0  0  0  0
    9.7440   45.1990   52.3660 N   0  0  0  0  0  0  0  0  0  0  0  0
    9.0560   46.1640   51.7180 N   0  0  0  0  0  0  0  0  0  0  0  0
    7.9190   45.9930   44.2420 C   0  0  0  0  0  0  0  0  0  0  0  0
    9.0490   45.7120   43.2600 C   0  0  0  0  0  0  0  0  0  0  0  0
    7.6480   47.3250   40.1910 C   0  0  0  0  0  0  0  0  0  0  0  0
    7.8730   46.3960   39.2210 N   0  0  0  0  0  0  0  0  0  0  0  0
    8.4770   45.2510   39.5840 C   0  0  0  0  0  0  0  0  0  0  0  0
    8.8810   45.0040   40.8770 C   0  0  0  0  0  0  0  0  0  0  0  0
    8.6410   45.9620   41.8620 C   0  0  0  0  0  0  0  0  0  0  0  0
    8.0220   47.1500   41.5050 C   0  0  0  0  0  0  0  0  0  0  0  0
    6.2440   49.2460   40.9760 C   0  0  0  0  0  0  0  0  0  0  0  0
    6.9630   48.6040   39.8080 C   0  0  0  0  0  0  0  0  0  0  0  0
    8.7220   44.2130   38.5160 C   0  0  0  0  0  0  0  0  0  0  0  0
    8.7150   42.8100   39.0890 C   0  0  0  0  0  0  0  0  0  0  0  0
  1 26  1  6  0  0  0
  1  8  1  0  0  0  0
  1  2  1  0  0  0  0
  2  3  1  0  0  0  0
  3  5  1  0  0  0  0
  3  4  2  0  0  0  0
  5 14  1  6  0  0  0
  6  7  2  0  0  0  0
  6  5  1  0  0  0  0
  8  6  1  0  0  0  0
  9  1  1  0  0  0  0
 10  9  1  0  0  0  0
 11 10  1  0  0  0  0
 12 11  1  0  0  0  0
 12 13  1  0  0  0  0
 13  9  1  0  0  0  0
 14 15  1  0  0  0  0
 15 25  2  0  0  0  0
 16 15  2  0  0  0  0
 16 17  2  0  0  0  0
 17 18  2  0  0  0  0
 17 24  1  0  0  0  0
 18 19  2  0  0  0  0
 19 20  1  0  0  0  0
 19 21  1  0  0  0  0
 22 21  2  0  0  0  0
 22 23  1  0  0  0  0
 24 22  1  0  0  0  0
 25 24  1  0  0  0  0
 27 26  1  0  0  0  0
 28 33  1  0  0  0  0
 29 30  2  0  0  0  0
 29 28  2  0  0  0  0
 30 31  1  0  0  0  0
 31 32  2  0  0  0  0
 32 27  1  0  0  0  0
 33 32  1  0  0  0  0
 35 28  1  0  0  0  0
 35 34  1  0  0  0  0
 36 37  1  0  0  0  0
 36 30  1  0  0  0  0
M  END
>  <minimizedAffinity>
-9.34390068

$$$$
