
 OpenBabel12271915023D

 37 41  0  0  1  0  0  0  0  0999 V2000
    8.4930   49.0740   44.3560 C   0  0  2  0  0  0  0  0  0  0  0  0
    7.3350   48.3940   44.9020 O   0  0  0  0  0  0  0  0  0  0  0  0
    7.2850   47.6360   46.0110 C   0  0  0  0  0  0  0  0  0  0  0  0
    6.1950   47.2970   46.4900 O   0  0  0  0  0  0  0  0  0  0  0  0
    8.5460   47.2220   46.6380 C   0  0  0  0  0  0  0  0  0  0  0  0
    9.7290   47.6960   46.1770 C   0  0  0  0  0  0  0  0  0  0  0  0
   10.8780   47.4210   46.6880 O   0  0  0  0  0  0  0  0  0  0  0  0
    9.8180   48.5820   44.9630 C   0  0  0  0  0  0  0  0  0  0  0  0
    8.2390   50.5610   44.6190 C   0  0  0  0  0  0  0  0  0  0  0  0
    8.0800   51.4090   43.3340 C   0  0  0  0  0  0  0  0  0  0  0  0
    7.0340   52.4890   43.6260 C   0  0  0  0  0  0  0  0  0  0  0  0
    6.6450   52.3320   45.0870 C   0  0  0  0  0  0  0  0  0  0  0  0
    6.9410   50.8700   45.3980 C   0  0  0  0  0  0  0  0  0  0  0  0
    8.4630   46.2880   47.8130 C   0  0  0  0  0  0  0  0  0  0  0  0
    8.3120   47.0280   49.1150 C   0  0  0  0  0  0  0  0  0  0  0  0
    7.1340   47.4530   49.6230 N   0  0  0  0  0  0  0  0  0  0  0  0
    7.4230   48.0410   50.7550 C   0  0  0  0  0  0  0  0  0  0  0  0
    6.6130   48.6610   51.6790 N   0  0  0  0  0  0  0  0  0  0  0  0
    7.1740   49.1660   52.7230 C   0  0  0  0  0  0  0  0  0  0  0  0
    6.3330   49.8320   53.7700 C   0  0  0  0  0  0  0  0  0  0  0  0
    8.6370   49.1350   52.9720 C   0  0  0  0  0  0  0  0  0  0  0  0
    9.3950   48.5140   52.0600 C   0  0  0  0  0  0  0  0  0  0  0  0
   10.8770   48.3980   52.2190 C   0  0  0  0  0  0  0  0  0  0  0  0
    8.7840   47.9510   50.9460 N   0  0  0  0  0  0  0  0  0  0  0  0
    9.3330   47.2470   49.9460 N   0  0  0  0  0  0  0  0  0  0  0  0
    8.3840   48.6660   42.8830 C   0  0  0  0  0  0  0  0  0  0  0  0
    7.0460   48.3020   42.2400 C   0  0  0  0  0  0  0  0  0  0  0  0
    6.4980   48.2780   38.4960 C   0  0  0  0  0  0  0  0  0  0  0  0
    6.2570   49.5820   38.2290 N   0  0  0  0  0  0  0  0  0  0  0  0
    6.3250   50.4690   39.2440 C   0  0  0  0  0  0  0  0  0  0  0  0
    6.5940   50.0790   40.5400 C   0  0  0  0  0  0  0  0  0  0  0  0
    6.8230   48.7410   40.8250 C   0  0  0  0  0  0  0  0  0  0  0  0
    6.7830   47.8300   39.7770 C   0  0  0  0  0  0  0  0  0  0  0  0
    6.1080   48.0920   36.0570 C   0  0  0  0  0  0  0  0  0  0  0  0
    6.3620   47.3100   37.3400 C   0  0  0  0  0  0  0  0  0  0  0  0
    6.0250   51.9200   38.9520 C   0  0  0  0  0  0  0  0  0  0  0  0
    6.9030   52.7930   39.8450 C   0  0  0  0  0  0  0  0  0  0  0  0
  1 26  1  6  0  0  0
  1  9  1  0  0  0  0
  1  2  1  0  0  0  0
  1  8  1  0  0  0  0
  2  3  1  0  0  0  0
  3  4  2  0  0  0  0
  3  5  1  0  0  0  0
  5 14  1  0  0  0  0
  6  5  2  0  0  0  0
  6  7  1  0  0  0  0
  8  6  1  0  0  0  0
  9 13  1  0  0  0  0
 10 11  1  0  0  0  0
 10  9  1  0  0  0  0
 11 12  1  0  0  0  0
 12 13  1  0  0  0  0
 14 15  1  0  0  0  0
 15 16  2  0  0  0  0
 15 25  2  0  0  0  0
 16 17  2  0  0  0  0
 17 24  1  0  0  0  0
 17 18  2  0  0  0  0
 18 19  2  0  0  0  0
 19 21  1  0  0  0  0
 19 20  1  0  0  0  0
 22 23  1  0  0  0  0
 22 21  2  0  0  0  0
 24 22  1  0  0  0  0
 25 24  1  0  0  0  0
 27 26  1  0  0  0  0
 28 33  1  0  0  0  0
 29 28  2  0  0  0  0
 29 30  2  0  0  0  0
 30 31  1  0  0  0  0
 31 32  2  0  0  0  0
 32 27  1  0  0  0  0
 33 32  1  0  0  0  0
 34 35  1  0  0  0  0
 35 28  1  0  0  0  0
 36 30  1  0  0  0  0
 36 37  1  0  0  0  0
M  END
>  <minimizedAffinity>
-11.0127239

$$$$

 OpenBabel12271915023D

 37 41  0  0  1  0  0  0  0  0999 V2000
    8.4990   49.0420   44.4350 C   0  0  2  0  0  0  0  0  0  0  0  0
    7.3390   48.3780   44.9940 O   0  0  0  0  0  0  0  0  0  0  0  0
    7.2870   47.6340   46.1120 C   0  0  0  0  0  0  0  0  0  0  0  0
    6.1980   47.3080   46.6010 O   0  0  0  0  0  0  0  0  0  0  0  0
    8.5480   47.2150   46.7380 C   0  0  0  0  0  0  0  0  0  0  0  0
    9.7330   47.6740   46.2650 C   0  0  0  0  0  0  0  0  0  0  0  0
   10.8820   47.3960   46.7740 O   0  0  0  0  0  0  0  0  0  0  0  0
    9.8230   48.5460   45.0400 C   0  0  0  0  0  0  0  0  0  0  0  0
    8.2590   50.5350   44.6820 C   0  0  0  0  0  0  0  0  0  0  0  0
    8.1490   51.3760   43.3880 C   0  0  0  0  0  0  0  0  0  0  0  0
    7.1100   52.4730   43.6440 C   0  0  0  0  0  0  0  0  0  0  0  0
    6.6770   52.3300   45.0940 C   0  0  0  0  0  0  0  0  0  0  0  0
    6.9440   50.8660   45.4220 C   0  0  0  0  0  0  0  0  0  0  0  0
    8.4630   46.2960   47.9240 C   0  0  0  0  0  0  0  0  0  0  0  0
    8.3010   47.0510   49.2160 C   0  0  0  0  0  0  0  0  0  0  0  0
    7.1160   47.4580   49.7210 N   0  0  0  0  0  0  0  0  0  0  0  0
    7.3960   48.0680   50.8440 C   0  0  0  0  0  0  0  0  0  0  0  0
    6.5760   48.6840   51.7620 N   0  0  0  0  0  0  0  0  0  0  0  0
    7.1300   49.2160   52.7970 C   0  0  0  0  0  0  0  0  0  0  0  0
    6.2780   49.8790   53.8370 C   0  0  0  0  0  0  0  0  0  0  0  0
    8.5940   49.2200   53.0410 C   0  0  0  0  0  0  0  0  0  0  0  0
    9.3620   48.6020   52.1350 C   0  0  0  0  0  0  0  0  0  0  0  0
   10.8470   48.5200   52.2910 C   0  0  0  0  0  0  0  0  0  0  0  0
    8.7590   48.0100   51.0310 N   0  0  0  0  0  0  0  0  0  0  0  0
    9.3200   47.3040   50.0390 N   0  0  0  0  0  0  0  0  0  0  0  0
    8.3790   48.6190   42.9670 C   0  0  0  0  0  0  0  0  0  0  0  0
    7.0480   48.1850   42.3550 C   0  0  0  0  0  0  0  0  0  0  0  0
    6.2830   50.3880   39.3750 C   0  0  0  0  0  0  0  0  0  0  0  0
    6.3400   49.5140   38.3440 N   0  0  0  0  0  0  0  0  0  0  0  0
    6.5710   48.2120   38.6180 C   0  0  0  0  0  0  0  0  0  0  0  0
    6.7840   47.7620   39.9050 C   0  0  0  0  0  0  0  0  0  0  0  0
    6.7470   48.6560   40.9650 C   0  0  0  0  0  0  0  0  0  0  0  0
    6.4800   49.9910   40.6880 C   0  0  0  0  0  0  0  0  0  0  0  0
    6.9700   52.7100   39.8960 C   0  0  0  0  0  0  0  0  0  0  0  0
    6.0730   51.8440   39.0200 C   0  0  0  0  0  0  0  0  0  0  0  0
    6.6660   47.2410   37.4660 C   0  0  0  0  0  0  0  0  0  0  0  0
    5.9640   47.8460   36.2530 C   0  0  0  0  0  0  0  0  0  0  0  0
  1 26  1  6  0  0  0
  1  9  1  0  0  0  0
  1  2  1  0  0  0  0
  1  8  1  0  0  0  0
  2  3  1  0  0  0  0
  3  4  2  0  0  0  0
  3  5  1  0  0  0  0
  5 14  1  0  0  0  0
  6  5  2  0  0  0  0
  6  7  1  0  0  0  0
  8  6  1  0  0  0  0
  9 13  1  0  0  0  0
 10 11  1  0  0  0  0
 10  9  1  0  0  0  0
 11 12  1  0  0  0  0
 12 13  1  0  0  0  0
 14 15  1  0  0  0  0
 15 16  2  0  0  0  0
 15 25  2  0  0  0  0
 16 17  2  0  0  0  0
 17 24  1  0  0  0  0
 17 18  2  0  0  0  0
 18 19  2  0  0  0  0
 19 21  1  0  0  0  0
 19 20  1  0  0  0  0
 22 23  1  0  0  0  0
 22 21  2  0  0  0  0
 24 22  1  0  0  0  0
 25 24  1  0  0  0  0
 27 26  1  0  0  0  0
 28 33  1  0  0  0  0
 29 30  2  0  0  0  0
 29 28  2  0  0  0  0
 30 31  1  0  0  0  0
 31 32  2  0  0  0  0
 32 27  1  0  0  0  0
 33 32  1  0  0  0  0
 35 28  1  0  0  0  0
 35 34  1  0  0  0  0
 36 30  1  0  0  0  0
 37 36  1  0  0  0  0
M  END
>  <minimizedAffinity>
-11.0081539

$$$$

 OpenBabel12271915023D

 37 41  0  0  1  0  0  0  0  0999 V2000
    8.4940   46.7530   43.8170 C   0  0  2  0  0  0  0  0  0  0  0  0
    9.4140   47.7240   44.3770 O   0  0  0  0  0  0  0  0  0  0  0  0
   10.2290   47.5560   45.4320 C   0  0  0  0  0  0  0  0  0  0  0  0
   11.1220   48.3790   45.6730 O   0  0  0  0  0  0  0  0  0  0  0  0
   10.0380   46.3800   46.2900 C   0  0  0  0  0  0  0  0  0  0  0  0
    9.1390   45.4240   45.9520 C   0  0  0  0  0  0  0  0  0  0  0  0
    8.9330   44.3420   46.6190 O   0  0  0  0  0  0  0  0  0  0  0  0
    8.2390   45.5590   44.7520 C   0  0  0  0  0  0  0  0  0  0  0  0
    9.1250   46.3350   42.4840 C   0  0  0  0  0  0  0  0  0  0  0  0
    9.4360   44.8230   42.3830 C   0  0  0  0  0  0  0  0  0  0  0  0
    9.1820   44.4010   40.9320 C   0  0  0  0  0  0  0  0  0  0  0  0
    8.8090   45.6630   40.1720 C   0  0  0  0  0  0  0  0  0  0  0  0
    8.2430   46.5900   41.2410 C   0  0  0  0  0  0  0  0  0  0  0  0
   10.8920   46.2730   47.5220 C   0  0  0  0  0  0  0  0  0  0  0  0
   10.2240   46.8740   48.7300 C   0  0  0  0  0  0  0  0  0  0  0  0
    8.8860   46.9450   48.9080 N   0  0  0  0  0  0  0  0  0  0  0  0
    8.7100   47.5250   50.0680 C   0  0  0  0  0  0  0  0  0  0  0  0
    7.5570   47.8590   50.7410 N   0  0  0  0  0  0  0  0  0  0  0  0
    7.6780   48.4350   51.8870 C   0  0  0  0  0  0  0  0  0  0  0  0
    6.4530   48.7970   52.6700 C   0  0  0  0  0  0  0  0  0  0  0  0
    8.9840   48.7770   52.5060 C   0  0  0  0  0  0  0  0  0  0  0  0
   10.0850   48.4290   51.8310 C   0  0  0  0  0  0  0  0  0  0  0  0
   11.4540   48.6990   52.3700 C   0  0  0  0  0  0  0  0  0  0  0  0
    9.9510   47.7870   50.6050 N   0  0  0  0  0  0  0  0  0  0  0  0
   10.9030   47.3080   49.7920 N   0  0  0  0  0  0  0  0  0  0  0  0
    7.2350   47.6140   43.6760 C   0  0  0  0  0  0  0  0  0  0  0  0
    7.2030   49.0790   44.1100 C   0  0  0  0  0  0  0  0  0  0  0  0
    6.6850   50.8110   40.7860 C   0  0  0  0  0  0  0  0  0  0  0  0
    6.9680   52.1000   41.0820 N   0  0  0  0  0  0  0  0  0  0  0  0
    7.3750   52.3970   42.3340 C   0  0  0  0  0  0  0  0  0  0  0  0
    7.4740   51.4360   43.3190 C   0  0  0  0  0  0  0  0  0  0  0  0
    7.1660   50.1150   43.0280 C   0  0  0  0  0  0  0  0  0  0  0  0
    6.7750   49.8020   41.7320 C   0  0  0  0  0  0  0  0  0  0  0  0
    6.8100   49.2370   38.8770 C   0  0  0  0  0  0  0  0  0  0  0  0
    6.1830   50.5290   39.3860 C   0  0  0  0  0  0  0  0  0  0  0  0
    7.6610   53.8400   42.6740 C   0  0  0  0  0  0  0  0  0  0  0  0
    8.2200   53.9100   44.0930 C   0  0  0  0  0  0  0  0  0  0  0  0
  1 26  1  6  0  0  0
  1  2  1  0  0  0  0
  1  8  1  0  0  0  0
  2  3  1  0  0  0  0
  3  4  2  0  0  0  0
  3  5  1  0  0  0  0
  5 14  1  0  0  0  0
  6  5  2  0  0  0  0
  6  7  1  0  0  0  0
  8  6  1  0  0  0  0
  9  1  1  0  0  0  0
 10  9  1  0  0  0  0
 11 10  1  0  0  0  0
 12 11  1  0  0  0  0
 12 13  1  0  0  0  0
 13  9  1  0  0  0  0
 14 15  1  0  0  0  0
 15 16  2  0  0  0  0
 15 25  2  0  0  0  0
 16 17  2  0  0  0  0
 17 24  1  0  0  0  0
 17 18  2  0  0  0  0
 18 19  2  0  0  0  0
 19 21  1  0  0  0  0
 19 20  1  0  0  0  0
 22 23  1  0  0  0  0
 22 21  2  0  0  0  0
 24 22  1  0  0  0  0
 25 24  1  0  0  0  0
 26 27  1  0  0  0  0
 28 29  2  0  0  0  0
 28 33  1  0  0  0  0
 29 30  2  0  0  0  0
 30 36  1  0  0  0  0
 30 31  1  0  0  0  0
 32 31  2  0  0  0  0
 32 27  1  0  0  0  0
 33 32  1  0  0  0  0
 34 35  1  0  0  0  0
 35 28  1  0  0  0  0
 36 37  1  0  0  0  0
M  END
>  <minimizedAffinity>
-10.9651241

$$$$

 OpenBabel12271915023D

 37 41  0  0  1  0  0  0  0  0999 V2000
    8.5260   46.6120   43.8470 C   0  0  2  0  0  0  0  0  0  0  0  0
    9.4500   47.5910   44.3850 O   0  0  0  0  0  0  0  0  0  0  0  0
   10.2380   47.4580   45.4650 C   0  0  0  0  0  0  0  0  0  0  0  0
   11.1400   48.2760   45.6890 O   0  0  0  0  0  0  0  0  0  0  0  0
   10.0060   46.3260   46.3710 C   0  0  0  0  0  0  0  0  0  0  0  0
    9.0960   45.3720   46.0550 C   0  0  0  0  0  0  0  0  0  0  0  0
    8.8560   44.3250   46.7650 O   0  0  0  0  0  0  0  0  0  0  0  0
    8.2270   45.4670   44.8300 C   0  0  0  0  0  0  0  0  0  0  0  0
    9.1780   46.1230   42.5500 C   0  0  0  0  0  0  0  0  0  0  0  0
    9.2750   44.5830   42.4380 C   0  0  0  0  0  0  0  0  0  0  0  0
    9.0620   44.2180   40.9650 C   0  0  0  0  0  0  0  0  0  0  0  0
    8.9260   45.5300   40.2090 C   0  0  0  0  0  0  0  0  0  0  0  0
    8.4280   46.5160   41.2580 C   0  0  0  0  0  0  0  0  0  0  0  0
   10.8300   46.2610   47.6260 C   0  0  0  0  0  0  0  0  0  0  0  0
   10.1180   46.8710   48.8040 C   0  0  0  0  0  0  0  0  0  0  0  0
    8.7760   46.9800   48.9150 N   0  0  0  0  0  0  0  0  0  0  0  0
    8.5570   47.5550   50.0700 C   0  0  0  0  0  0  0  0  0  0  0  0
    7.3820   47.9160   50.6870 N   0  0  0  0  0  0  0  0  0  0  0  0
    7.4610   48.4790   51.8430 C   0  0  0  0  0  0  0  0  0  0  0  0
    6.2080   48.8700   52.5670 C   0  0  0  0  0  0  0  0  0  0  0  0
    8.7420   48.7770   52.5310 C   0  0  0  0  0  0  0  0  0  0  0  0
    9.8660   48.4030   51.9090 C   0  0  0  0  0  0  0  0  0  0  0  0
   11.2130   48.6280   52.5200 C   0  0  0  0  0  0  0  0  0  0  0  0
    9.7760   47.7760   50.6720 N   0  0  0  0  0  0  0  0  0  0  0  0
   10.7550   47.2760   49.9040 N   0  0  0  0  0  0  0  0  0  0  0  0
    7.2860   47.4880   43.6380 C   0  0  0  0  0  0  0  0  0  0  0  0
    7.2110   48.9240   44.1580 C   0  0  0  0  0  0  0  0  0  0  0  0
    7.3090   52.3060   42.4640 C   0  0  0  0  0  0  0  0  0  0  0  0
    7.0130   51.9980   41.1800 N   0  0  0  0  0  0  0  0  0  0  0  0
    6.7320   50.7130   40.8770 C   0  0  0  0  0  0  0  0  0  0  0  0
    6.7740   49.7100   41.8250 C   0  0  0  0  0  0  0  0  0  0  0  0
    7.0950   50.0160   43.1390 C   0  0  0  0  0  0  0  0  0  0  0  0
    7.3560   51.3430   43.4600 C   0  0  0  0  0  0  0  0  0  0  0  0
    8.1940   53.8610   44.1760 C   0  0  0  0  0  0  0  0  0  0  0  0
    7.6670   53.7480   42.7510 C   0  0  0  0  0  0  0  0  0  0  0  0
    6.4330   50.3620   39.4390 C   0  0  0  0  0  0  0  0  0  0  0  0
    6.5770   48.8530   39.2600 C   0  0  0  0  0  0  0  0  0  0  0  0
  1 26  1  6  0  0  0
  1  2  1  0  0  0  0
  1  8  1  0  0  0  0
  2  3  1  0  0  0  0
  3  4  2  0  0  0  0
  3  5  1  0  0  0  0
  5 14  1  0  0  0  0
  6  5  2  0  0  0  0
  6  7  1  0  0  0  0
  8  6  1  0  0  0  0
  9  1  1  0  0  0  0
 10  9  1  0  0  0  0
 11 10  1  0  0  0  0
 12 11  1  0  0  0  0
 12 13  1  0  0  0  0
 13  9  1  0  0  0  0
 14 15  1  0  0  0  0
 15 16  2  0  0  0  0
 15 25  2  0  0  0  0
 16 17  2  0  0  0  0
 17 24  1  0  0  0  0
 17 18  2  0  0  0  0
 18 19  2  0  0  0  0
 19 21  1  0  0  0  0
 19 20  1  0  0  0  0
 22 23  1  0  0  0  0
 22 21  2  0  0  0  0
 24 22  1  0  0  0  0
 25 24  1  0  0  0  0
 26 27  1  0  0  0  0
 28 35  1  0  0  0  0
 28 33  1  0  0  0  0
 29 28  2  0  0  0  0
 30 29  2  0  0  0  0
 30 31  1  0  0  0  0
 31 32  2  0  0  0  0
 32 33  1  0  0  0  0
 32 27  1  0  0  0  0
 35 34  1  0  0  0  0
 36 30  1  0  0  0  0
 37 36  1  0  0  0  0
M  END
>  <minimizedAffinity>
-10.7723322

$$$$

 OpenBabel12271915023D

 37 41  0  0  1  0  0  0  0  0999 V2000
    7.7730   48.8790   44.2930 C   0  0  2  0  0  0  0  0  0  0  0  0
    6.9370   48.5240   45.4220 O   0  0  0  0  0  0  0  0  0  0  0  0
    7.2910   47.8060   46.5020 C   0  0  0  0  0  0  0  0  0  0  0  0
    6.5540   47.7620   47.4950 O   0  0  0  0  0  0  0  0  0  0  0  0
    8.5650   47.0790   46.4770 C   0  0  0  0  0  0  0  0  0  0  0  0
    9.4200   47.2290   45.4350 C   0  0  0  0  0  0  0  0  0  0  0  0
   10.5740   46.6650   45.3460 O   0  0  0  0  0  0  0  0  0  0  0  0
    9.0730   48.0600   44.2280 C   0  0  0  0  0  0  0  0  0  0  0  0
    8.0280   50.3820   44.4470 C   0  0  0  0  0  0  0  0  0  0  0  0
    7.8530   51.1870   43.1360 C   0  0  0  0  0  0  0  0  0  0  0  0
    7.2560   52.5470   43.5130 C   0  0  0  0  0  0  0  0  0  0  0  0
    7.1610   52.5740   45.0290 C   0  0  0  0  0  0  0  0  0  0  0  0
    7.0760   51.1050   45.4250 C   0  0  0  0  0  0  0  0  0  0  0  0
    8.8860   46.1990   47.6530 C   0  0  0  0  0  0  0  0  0  0  0  0
    9.6500   46.9360   48.7200 C   0  0  0  0  0  0  0  0  0  0  0  0
   10.8480   47.5320   48.5320 N   0  0  0  0  0  0  0  0  0  0  0  0
   11.1710   48.0590   49.6850 C   0  0  0  0  0  0  0  0  0  0  0  0
   12.2850   48.7710   50.0680 N   0  0  0  0  0  0  0  0  0  0  0  0
   12.3450   49.1760   51.2890 C   0  0  0  0  0  0  0  0  0  0  0  0
   13.5270   49.9750   51.7500 C   0  0  0  0  0  0  0  0  0  0  0  0
   11.2980   48.9000   52.3050 C   0  0  0  0  0  0  0  0  0  0  0  0
   10.2230   48.2150   51.8970 C   0  0  0  0  0  0  0  0  0  0  0  0
    9.0930   47.9030   52.8250 C   0  0  0  0  0  0  0  0  0  0  0  0
   10.1510   47.7990   50.5720 N   0  0  0  0  0  0  0  0  0  0  0  0
    9.1590   47.1550   49.9410 N   0  0  0  0  0  0  0  0  0  0  0  0
    6.8410   48.5140   43.1330 C   0  0  0  0  0  0  0  0  0  0  0  0
    7.3280   47.7220   41.9200 C   0  0  0  0  0  0  0  0  0  0  0  0
    6.6850   48.0510   38.2060 C   0  0  0  0  0  0  0  0  0  0  0  0
    6.3200   49.3480   38.0870 N   0  0  0  0  0  0  0  0  0  0  0  0
    6.3350   50.1230   39.1930 C   0  0  0  0  0  0  0  0  0  0  0  0
    6.6730   49.6220   40.4340 C   0  0  0  0  0  0  0  0  0  0  0  0
    7.0290   48.2880   40.5660 C   0  0  0  0  0  0  0  0  0  0  0  0
    7.0440   47.4960   39.4240 C   0  0  0  0  0  0  0  0  0  0  0  0
    6.2670   48.0970   35.7650 C   0  0  0  0  0  0  0  0  0  0  0  0
    6.6060   47.2050   36.9530 C   0  0  0  0  0  0  0  0  0  0  0  0
    5.8980   51.5630   39.0670 C   0  0  0  0  0  0  0  0  0  0  0  0
    6.9050   52.4480   39.7970 C   0  0  0  0  0  0  0  0  0  0  0  0
  1 26  1  6  0  0  0
  1  9  1  0  0  0  0
  1  2  1  0  0  0  0
  2  3  1  0  0  0  0
  3  4  2  0  0  0  0
  5  3  1  0  0  0  0
  5 14  1  0  0  0  0
  6  5  2  0  0  0  0
  7  6  1  0  0  0  0
  8  1  1  0  0  0  0
  8  6  1  0  0  0  0
  9 13  1  0  0  0  0
 10 11  1  0  0  0  0
 10  9  1  0  0  0  0
 11 12  1  0  0  0  0
 12 13  1  0  0  0  0
 14 15  1  0  0  0  0
 15 25  2  0  0  0  0
 16 15  2  0  0  0  0
 16 17  2  0  0  0  0
 17 18  2  0  0  0  0
 17 24  1  0  0  0  0
 18 19  2  0  0  0  0
 19 20  1  0  0  0  0
 19 21  1  0  0  0  0
 22 21  2  0  0  0  0
 22 23  1  0  0  0  0
 24 22  1  0  0  0  0
 25 24  1  0  0  0  0
 27 26  1  0  0  0  0
 28 33  1  0  0  0  0
 29 28  2  0  0  0  0
 29 30  2  0  0  0  0
 30 31  1  0  0  0  0
 31 32  2  0  0  0  0
 32 27  1  0  0  0  0
 33 32  1  0  0  0  0
 34 35  1  0  0  0  0
 35 28  1  0  0  0  0
 36 30  1  0  0  0  0
 36 37  1  0  0  0  0
M  END
>  <minimizedAffinity>
-10.4712648

$$$$

 OpenBabel12271915023D

 37 41  0  0  1  0  0  0  0  0999 V2000
    8.5000   49.3360   44.0410 C   0  0  2  0  0  0  0  0  0  0  0  0
    7.3720   48.5640   44.5250 O   0  0  0  0  0  0  0  0  0  0  0  0
    7.3500   47.7290   45.5780 C   0  0  0  0  0  0  0  0  0  0  0  0
    6.2750   47.3040   46.0200 O   0  0  0  0  0  0  0  0  0  0  0  0
    8.6240   47.3330   46.1890 C   0  0  0  0  0  0  0  0  0  0  0  0
    9.7870   47.8950   45.7760 C   0  0  0  0  0  0  0  0  0  0  0  0
   10.9440   47.6410   46.2800 O   0  0  0  0  0  0  0  0  0  0  0  0
    9.8420   48.8670   44.6270 C   0  0  0  0  0  0  0  0  0  0  0  0
    8.1710   50.7870   44.4050 C   0  0  0  0  0  0  0  0  0  0  0  0
    7.6040   51.6170   43.2270 C   0  0  0  0  0  0  0  0  0  0  0  0
    6.5620   52.5790   43.8080 C   0  0  0  0  0  0  0  0  0  0  0  0
    6.5760   52.3770   45.3140 C   0  0  0  0  0  0  0  0  0  0  0  0
    7.0900   50.9540   45.4960 C   0  0  0  0  0  0  0  0  0  0  0  0
    8.5780   46.3160   47.2950 C   0  0  0  0  0  0  0  0  0  0  0  0
    8.4070   46.9560   48.6470 C   0  0  0  0  0  0  0  0  0  0  0  0
    7.2150   47.2740   49.1980 N   0  0  0  0  0  0  0  0  0  0  0  0
    7.4890   47.8010   50.3640 C   0  0  0  0  0  0  0  0  0  0  0  0
    6.6600   48.3080   51.3390 N   0  0  0  0  0  0  0  0  0  0  0  0
    7.2090   48.7740   52.4070 C   0  0  0  0  0  0  0  0  0  0  0  0
    6.3490   49.3160   53.5090 C   0  0  0  0  0  0  0  0  0  0  0  0
    8.6760   48.8150   52.6330 C   0  0  0  0  0  0  0  0  0  0  0  0
    9.4520   48.3040   51.6710 C   0  0  0  0  0  0  0  0  0  0  0  0
   10.9420   48.2680   51.8010 C   0  0  0  0  0  0  0  0  0  0  0  0
    8.8560   47.7810   50.5290 N   0  0  0  0  0  0  0  0  0  0  0  0
    9.4280   47.1800   49.4760 N   0  0  0  0  0  0  0  0  0  0  0  0
    8.4220   49.0280   42.5420 C   0  0  0  0  0  0  0  0  0  0  0  0
    7.4270   48.0180   41.9730 C   0  0  0  0  0  0  0  0  0  0  0  0
    8.7310   44.4680   42.0910 C   0  0  0  0  0  0  0  0  0  0  0  0
    8.8150   44.1450   40.7790 N   0  0  0  0  0  0  0  0  0  0  0  0
    8.5040   45.0870   39.8650 C   0  0  0  0  0  0  0  0  0  0  0  0
    8.0710   46.3460   40.2290 C   0  0  0  0  0  0  0  0  0  0  0  0
    7.9640   46.6780   41.5710 C   0  0  0  0  0  0  0  0  0  0  0  0
    8.3120   45.7190   42.5150 C   0  0  0  0  0  0  0  0  0  0  0  0
    8.8940   43.9110   44.4980 C   0  0  0  0  0  0  0  0  0  0  0  0
    9.0400   43.3670   43.0830 C   0  0  0  0  0  0  0  0  0  0  0  0
    8.5670   44.7180   38.4020 C   0  0  0  0  0  0  0  0  0  0  0  0
    8.8870   43.2300   38.2830 C   0  0  0  0  0  0  0  0  0  0  0  0
  1 26  1  6  0  0  0
  1  9  1  0  0  0  0
  1  2  1  0  0  0  0
  1  8  1  0  0  0  0
  2  3  1  0  0  0  0
  3  4  2  0  0  0  0
  3  5  1  0  0  0  0
  5 14  1  0  0  0  0
  6  5  2  0  0  0  0
  6  7  1  0  0  0  0
  8  6  1  0  0  0  0
  9 13  1  0  0  0  0
 10 11  1  0  0  0  0
 10  9  1  0  0  0  0
 11 12  1  0  0  0  0
 12 13  1  0  0  0  0
 14 15  1  0  0  0  0
 15 16  2  0  0  0  0
 15 25  2  0  0  0  0
 16 17  2  0  0  0  0
 17 24  1  0  0  0  0
 17 18  2  0  0  0  0
 18 19  2  0  0  0  0
 19 21  1  0  0  0  0
 19 20  1  0  0  0  0
 22 23  1  0  0  0  0
 22 21  2  0  0  0  0
 24 22  1  0  0  0  0
 25 24  1  0  0  0  0
 27 26  1  0  0  0  0
 28 33  1  0  0  0  0
 28 35  1  0  0  0  0
 29 28  2  0  0  0  0
 30 31  1  0  0  0  0
 30 29  2  0  0  0  0
 31 32  2  0  0  0  0
 32 27  1  0  0  0  0
 32 33  1  0  0  0  0
 35 34  1  0  0  0  0
 36 30  1  0  0  0  0
 37 36  1  0  0  0  0
M  END
>  <minimizedAffinity>
-10.3997402

$$$$

 OpenBabel12271915023D

 37 41  0  0  1  0  0  0  0  0999 V2000
    8.5410   47.2560   44.9780 C   0  0  2  0  0  0  0  0  0  0  0  0
    9.6070   46.6960   45.7840 O   0  0  0  0  0  0  0  0  0  0  0  0
    9.4900   46.0810   46.9730 C   0  0  0  0  0  0  0  0  0  0  0  0
   10.4440   45.4530   47.4520 O   0  0  0  0  0  0  0  0  0  0  0  0
    8.2130   46.1710   47.6900 C   0  0  0  0  0  0  0  0  0  0  0  0
    7.1390   46.7580   47.1060 C   0  0  0  0  0  0  0  0  0  0  0  0
    5.9710   46.8460   47.6400 O   0  0  0  0  0  0  0  0  0  0  0  0
    7.2240   47.4190   45.7550 C   0  0  0  0  0  0  0  0  0  0  0  0
    8.4080   46.3060   43.7830 C   0  0  0  0  0  0  0  0  0  0  0  0
    9.2010   46.7560   42.5320 C   0  0  0  0  0  0  0  0  0  0  0  0
    9.7280   45.4910   41.8470 C   0  0  0  0  0  0  0  0  0  0  0  0
    9.1830   44.3120   42.6350 C   0  0  0  0  0  0  0  0  0  0  0  0
    8.9350   44.8760   44.0290 C   0  0  0  0  0  0  0  0  0  0  0  0
    8.1430   45.5660   49.0640 C   0  0  0  0  0  0  0  0  0  0  0  0
    7.9930   46.6120   50.1370 C   0  0  0  0  0  0  0  0  0  0  0  0
    6.8110   47.1160   50.5540 N   0  0  0  0  0  0  0  0  0  0  0  0
    7.1020   47.9850   51.4880 C   0  0  0  0  0  0  0  0  0  0  0  0
    6.2900   48.7970   52.2470 N   0  0  0  0  0  0  0  0  0  0  0  0
    6.8530   49.5710   53.1080 C   0  0  0  0  0  0  0  0  0  0  0  0
    6.0110   50.4580   53.9740 C   0  0  0  0  0  0  0  0  0  0  0  0
    8.3220   49.6520   53.3100 C   0  0  0  0  0  0  0  0  0  0  0  0
    9.0830   48.8410   52.5650 C   0  0  0  0  0  0  0  0  0  0  0  0
   10.5710   48.8170   52.7030 C   0  0  0  0  0  0  0  0  0  0  0  0
    8.4690   47.9900   51.6530 N   0  0  0  0  0  0  0  0  0  0  0  0
    9.0220   47.0700   50.8510 N   0  0  0  0  0  0  0  0  0  0  0  0
    9.1430   48.6220   44.6340 C   0  0  0  0  0  0  0  0  0  0  0  0
    8.3610   49.9220   44.8180 C   0  0  0  0  0  0  0  0  0  0  0  0
    7.1790   52.4070   42.2200 C   0  0  0  0  0  0  0  0  0  0  0  0
    6.7000   51.6020   41.2440 N   0  0  0  0  0  0  0  0  0  0  0  0
    6.7110   50.2680   41.4490 C   0  0  0  0  0  0  0  0  0  0  0  0
    7.2260   49.7080   42.6010 C   0  0  0  0  0  0  0  0  0  0  0  0
    7.7360   50.5260   43.5970 C   0  0  0  0  0  0  0  0  0  0  0  0
    7.6990   51.9010   43.4020 C   0  0  0  0  0  0  0  0  0  0  0  0
    8.1640   54.1700   40.7870 C   0  0  0  0  0  0  0  0  0  0  0  0
    7.1950   53.8920   41.9290 C   0  0  0  0  0  0  0  0  0  0  0  0
    6.2060   49.3670   40.3470 C   0  0  0  0  0  0  0  0  0  0  0  0
    6.2300   50.1380   39.0300 C   0  0  0  0  0  0  0  0  0  0  0  0
  1 26  1  6  0  0  0
  1  8  1  0  0  0  0
  1  2  1  0  0  0  0
  2  3  1  0  0  0  0
  3  4  2  0  0  0  0
  3  5  1  0  0  0  0
  5 14  1  0  0  0  0
  6  7  1  0  0  0  0
  6  5  2  0  0  0  0
  8  6  1  0  0  0  0
  9 13  1  0  0  0  0
  9  1  1  0  0  0  0
 10  9  1  0  0  0  0
 11 10  1  0  0  0  0
 11 12  1  0  0  0  0
 12 13  1  0  0  0  0
 14 15  1  0  0  0  0
 15 16  2  0  0  0  0
 15 25  2  0  0  0  0
 16 17  2  0  0  0  0
 17 24  1  0  0  0  0
 17 18  2  0  0  0  0
 18 19  2  0  0  0  0
 19 21  1  0  0  0  0
 19 20  1  0  0  0  0
 22 23  1  0  0  0  0
 22 21  2  0  0  0  0
 24 22  1  0  0  0  0
 25 24  1  0  0  0  0
 26 27  1  0  0  0  0
 28 33  1  0  0  0  0
 29 30  2  0  0  0  0
 29 28  2  0  0  0  0
 30 31  1  0  0  0  0
 31 32  2  0  0  0  0
 32 27  1  0  0  0  0
 33 32  1  0  0  0  0
 34 35  1  0  0  0  0
 35 28  1  0  0  0  0
 36 30  1  0  0  0  0
 37 36  1  0  0  0  0
M  END
>  <minimizedAffinity>
-10.3243055

$$$$

 OpenBabel12271915023D

 37 41  0  0  1  0  0  0  0  0999 V2000
    8.0110   48.9750   43.6360 C   0  0  2  0  0  0  0  0  0  0  0  0
    7.0560   47.9890   44.0990 O   0  0  0  0  0  0  0  0  0  0  0  0
    7.1650   47.1950   45.1790 C   0  0  0  0  0  0  0  0  0  0  0  0
    6.1870   46.5580   45.5910 O   0  0  0  0  0  0  0  0  0  0  0  0
    8.4640   47.1020   45.8550 C   0  0  0  0  0  0  0  0  0  0  0  0
    9.4950   47.8930   45.4700 C   0  0  0  0  0  0  0  0  0  0  0  0
   10.6550   47.9100   46.0300 O   0  0  0  0  0  0  0  0  0  0  0  0
    9.3940   48.8250   44.2920 C   0  0  0  0  0  0  0  0  0  0  0  0
    7.3590   50.3290   43.9350 C   0  0  0  0  0  0  0  0  0  0  0  0
    8.2270   51.2650   44.8090 C   0  0  0  0  0  0  0  0  0  0  0  0
    7.9860   52.6980   44.3210 C   0  0  0  0  0  0  0  0  0  0  0  0
    6.9290   52.6130   43.2330 C   0  0  0  0  0  0  0  0  0  0  0  0
    7.0620   51.1950   42.6910 C   0  0  0  0  0  0  0  0  0  0  0  0
    8.5860   46.1270   46.9920 C   0  0  0  0  0  0  0  0  0  0  0  0
    8.4020   46.7910   48.3310 C   0  0  0  0  0  0  0  0  0  0  0  0
    7.2090   47.1740   48.8380 N   0  0  0  0  0  0  0  0  0  0  0  0
    7.4700   47.7010   50.0070 C   0  0  0  0  0  0  0  0  0  0  0  0
    6.6350   48.2590   50.9480 N   0  0  0  0  0  0  0  0  0  0  0  0
    7.1700   48.7120   52.0290 C   0  0  0  0  0  0  0  0  0  0  0  0
    6.3020   49.3090   53.0950 C   0  0  0  0  0  0  0  0  0  0  0  0
    8.6290   48.6850   52.3030 C   0  0  0  0  0  0  0  0  0  0  0  0
    9.4120   48.1250   51.3730 C   0  0  0  0  0  0  0  0  0  0  0  0
   10.8920   48.0190   51.5540 C   0  0  0  0  0  0  0  0  0  0  0  0
    8.8280   47.6180   50.2180 N   0  0  0  0  0  0  0  0  0  0  0  0
    9.4040   46.9760   49.1910 N   0  0  0  0  0  0  0  0  0  0  0  0
    8.0730   48.6210   42.1470 C   0  0  0  0  0  0  0  0  0  0  0  0
    8.4890   47.2330   41.6600 C   0  0  0  0  0  0  0  0  0  0  0  0
    7.0000   47.2940   38.1820 C   0  0  0  0  0  0  0  0  0  0  0  0
    7.4230   46.1180   37.6630 N   0  0  0  0  0  0  0  0  0  0  0  0
    8.1390   45.2890   38.4520 C   0  0  0  0  0  0  0  0  0  0  0  0
    8.4780   45.6220   39.7480 C   0  0  0  0  0  0  0  0  0  0  0  0
    8.0640   46.8340   40.2800 C   0  0  0  0  0  0  0  0  0  0  0  0
    7.3020   47.6770   39.4790 C   0  0  0  0  0  0  0  0  0  0  0  0
    6.1120   49.5880   37.8960 C   0  0  0  0  0  0  0  0  0  0  0  0
    6.2450   48.2150   37.2490 C   0  0  0  0  0  0  0  0  0  0  0  0
    8.6380   43.9910   37.8650 C   0  0  0  0  0  0  0  0  0  0  0  0
    8.6210   42.9190   38.9530 C   0  0  0  0  0  0  0  0  0  0  0  0
  1 26  1  6  0  0  0
  1  9  1  0  0  0  0
  1  2  1  0  0  0  0
  1  8  1  0  0  0  0
  2  3  1  0  0  0  0
  3  4  2  0  0  0  0
  3  5  1  0  0  0  0
  5 14  1  0  0  0  0
  6  5  2  0  0  0  0
  6  7  1  0  0  0  0
  8  6  1  0  0  0  0
  9 10  1  0  0  0  0
 11 10  1  0  0  0  0
 12 11  1  0  0  0  0
 13 12  1  0  0  0  0
 13  9  1  0  0  0  0
 14 15  1  0  0  0  0
 15 16  2  0  0  0  0
 15 25  2  0  0  0  0
 16 17  2  0  0  0  0
 17 24  1  0  0  0  0
 17 18  2  0  0  0  0
 18 19  2  0  0  0  0
 19 21  1  0  0  0  0
 19 20  1  0  0  0  0
 22 23  1  0  0  0  0
 22 21  2  0  0  0  0
 24 22  1  0  0  0  0
 25 24  1  0  0  0  0
 27 26  1  0  0  0  0
 28 33  1  0  0  0  0
 29 28  2  0  0  0  0
 29 30  2  0  0  0  0
 30 31  1  0  0  0  0
 31 32  2  0  0  0  0
 32 27  1  0  0  0  0
 33 32  1  0  0  0  0
 35 34  1  0  0  0  0
 35 28  1  0  0  0  0
 36 30  1  0  0  0  0
 36 37  1  0  0  0  0
M  END
>  <minimizedAffinity>
-10.3012266

$$$$

 OpenBabel12271915023D

 37 41  0  0  1  0  0  0  0  0999 V2000
    8.6490   47.0650   44.5720 C   0  0  2  0  0  0  0  0  0  0  0  0
    9.8900   47.3670   45.2570 O   0  0  0  0  0  0  0  0  0  0  0  0
   10.1390   47.2630   46.5740 C   0  0  0  0  0  0  0  0  0  0  0  0
   11.2980   47.3370   47.0020 O   0  0  0  0  0  0  0  0  0  0  0  0
    9.0090   47.0640   47.4900 C   0  0  0  0  0  0  0  0  0  0  0  0
    7.7590   46.8660   47.0030 C   0  0  0  0  0  0  0  0  0  0  0  0
    6.7180   46.6410   47.7270 O   0  0  0  0  0  0  0  0  0  0  0  0
    7.4530   46.9310   45.5310 C   0  0  0  0  0  0  0  0  0  0  0  0
    8.9290   45.7760   43.7940 C   0  0  0  0  0  0  0  0  0  0  0  0
    7.6940   44.8560   43.6350 C   0  0  0  0  0  0  0  0  0  0  0  0
    7.7910   44.1980   42.2550 C   0  0  0  0  0  0  0  0  0  0  0  0
    9.1050   44.6580   41.6460 C   0  0  0  0  0  0  0  0  0  0  0  0
    9.3930   45.9860   42.3360 C   0  0  0  0  0  0  0  0  0  0  0  0
    9.3030   47.0590   48.9640 C   0  0  0  0  0  0  0  0  0  0  0  0
    9.2500   45.6730   49.5480 C   0  0  0  0  0  0  0  0  0  0  0  0
    8.3840   45.2780   50.5080 N   0  0  0  0  0  0  0  0  0  0  0  0
    8.6530   44.0190   50.7380 C   0  0  0  0  0  0  0  0  0  0  0  0
    8.0900   43.1250   51.6200 N   0  0  0  0  0  0  0  0  0  0  0  0
    8.5600   41.9260   51.6390 C   0  0  0  0  0  0  0  0  0  0  0  0
    7.9650   40.9090   52.5660 C   0  0  0  0  0  0  0  0  0  0  0  0
    9.6820   41.4650   50.7840 C   0  0  0  0  0  0  0  0  0  0  0  0
   10.2000   42.3550   49.9290 C   0  0  0  0  0  0  0  0  0  0  0  0
   11.3150   41.9940   49.0010 C   0  0  0  0  0  0  0  0  0  0  0  0
    9.6750   43.6420   49.8960 N   0  0  0  0  0  0  0  0  0  0  0  0
   10.0000   44.6670   49.0950 N   0  0  0  0  0  0  0  0  0  0  0  0
    8.5070   48.3130   43.6950 C   0  0  0  0  0  0  0  0  0  0  0  0
    7.1750   48.7100   43.0600 C   0  0  0  0  0  0  0  0  0  0  0  0
    7.3860   52.4580   42.5860 C   0  0  0  0  0  0  0  0  0  0  0  0
    7.0300   52.6090   41.2890 N   0  0  0  0  0  0  0  0  0  0  0  0
    6.6720   51.5110   40.5900 C   0  0  0  0  0  0  0  0  0  0  0  0
    6.6960   50.2480   41.1470 C   0  0  0  0  0  0  0  0  0  0  0  0
    7.0790   50.0840   42.4700 C   0  0  0  0  0  0  0  0  0  0  0  0
    7.4190   51.2160   43.2010 C   0  0  0  0  0  0  0  0  0  0  0  0
    7.9640   53.3970   44.8040 C   0  0  0  0  0  0  0  0  0  0  0  0
    7.8280   53.7070   43.3180 C   0  0  0  0  0  0  0  0  0  0  0  0
    6.3050   51.6730   39.1350 C   0  0  0  0  0  0  0  0  0  0  0  0
    6.2270   50.2910   38.4900 C   0  0  0  0  0  0  0  0  0  0  0  0
  1 26  1  6  0  0  0
  1  2  1  0  0  0  0
  1  8  1  0  0  0  0
  2  3  1  0  0  0  0
  3  4  2  0  0  0  0
  3  5  1  0  0  0  0
  5 14  1  0  0  0  0
  6  5  2  0  0  0  0
  6  7  1  0  0  0  0
  8  6  1  0  0  0  0
  9  1  1  0  0  0  0
 10  9  1  0  0  0  0
 11 10  1  0  0  0  0
 12 11  1  0  0  0  0
 12 13  1  0  0  0  0
 13  9  1  0  0  0  0
 14 15  1  0  0  0  0
 15 16  2  0  0  0  0
 16 17  2  0  0  0  0
 17 18  2  0  0  0  0
 18 19  2  0  0  0  0
 19 20  1  0  0  0  0
 21 19  1  0  0  0  0
 22 21  2  0  0  0  0
 23 22  1  0  0  0  0
 24 22  1  0  0  0  0
 24 17  1  0  0  0  0
 25 15  2  0  0  0  0
 25 24  1  0  0  0  0
 27 26  2  0  0  0  0
 28 33  1  0  0  0  0
 28 35  1  0  0  0  0
 29 28  2  0  0  0  0
 30 31  1  0  0  0  0
 30 29  2  0  0  0  0
 31 32  2  0  0  0  0
 32 27  1  0  0  0  0
 32 33  1  0  0  0  0
 35 34  1  0  0  0  0
 36 30  1  0  0  0  0
 37 36  1  0  0  0  0
M  END
>  <minimizedAffinity>
-10.2697773

$$$$
