
 OpenBabel12271914593D

 22 23  0  0  1  0  0  0  0  0999 V2000
    8.0850   46.0530   44.8010 C   0  0  2  0  0  0  0  0  0  0  0  0
    7.4140   46.6630   46.0520 C   0  0  2  0  0  0  0  0  0  0  0  0
    7.2090   48.0670   45.7720 O   0  0  0  0  0  0  0  0  0  0  0  0
    7.2710   48.2260   44.3600 C   0  0  2  0  0  0  0  0  0  0  0  0
    8.3450   47.2470   43.9040 C   0  0  0  0  0  0  0  0  0  0  0  0
    7.4840   49.6650   43.9890 C   0  0  0  0  0  0  0  0  0  0  0  0
    7.1450   50.0900   42.6950 C   0  0  0  0  0  0  0  0  0  0  0  0
    7.2990   51.4350   42.3350 C   0  0  0  0  0  0  0  0  0  0  0  0
    6.8680   51.8390   40.9630 C   0  0  0  0  0  0  0  0  0  0  0  0
    7.8490   52.2690   43.2710 C   0  0  0  0  0  0  0  0  0  0  0  0
    8.2210   51.9010   44.5110 N   0  0  0  0  0  0  0  0  0  0  0  0
    8.0130   50.6050   44.8470 C   0  0  0  0  0  0  0  0  0  0  0  0
    8.1000   53.5860   43.0110 O   0  0  0  0  0  0  0  0  0  0  0  0
    8.3790   53.6150   42.0960 H   0  0  0  0  0  0  0  0  0  0  0  0
    7.1910   45.1530   44.1190 O   0  0  0  0  0  0  0  0  0  0  0  0
    6.6060   45.6700   43.5510 H   0  0  0  0  0  0  0  0  0  0  0  0
    8.1970   46.4340   47.3670 C   0  0  0  0  0  0  0  0  0  0  0  0
    9.1150   47.4350   47.6630 O   0  0  0  0  0  0  0  0  0  0  0  0
   10.6800   46.9850   47.5550 P   0  0  0  0  0  0  0  0  0  0  0  0
   11.3130   47.6500   48.7630 O   0  0  0  0  0  0  0  0  0  0  0  0
   10.6560   45.4800   47.6050 O   0  0  0  0  0  0  0  0  0  0  0  0
   11.1410   47.5870   46.2350 O   0  0  0  0  0  0  0  0  0  0  0  0
  1 15  1  6  0  0  0
  1  2  1  0  0  0  0
  2 17  1  1  0  0  0
  3  2  1  0  0  0  0
  4  6  1  1  0  0  0
  4  3  1  0  0  0  0
  5  4  1  0  0  0  0
  5  1  1  0  0  0  0
  6 12  2  0  0  0  0
  7  6  1  0  0  0  0
  8  7  2  0  0  0  0
  8 10  1  0  0  0  0
  9  8  1  0  0  0  0
 10 11  2  0  0  0  0
 11 12  1  0  0  0  0
 13 10  1  0  0  0  0
 14 13  1  0  0  0  0
 16 15  1  0  0  0  0
 17 18  1  0  0  0  0
 19 21  1  0  0  0  0
 19 18  1  0  0  0  0
 19 20  1  0  0  0  0
 22 19  2  0  0  0  0
M  END
>  <minimizedAffinity>
-7.5839262

$$$$

 OpenBabel12271914593D

 22 23  0  0  1  0  0  0  0  0999 V2000
    8.0170   46.5910   44.1950 C   0  0  2  0  0  0  0  0  0  0  0  0
    8.6090   47.3570   45.3990 C   0  0  2  0  0  0  0  0  0  0  0  0
    8.4270   48.7660   45.1270 O   0  0  0  0  0  0  0  0  0  0  0  0
    7.4120   48.8740   44.1370 C   0  0  2  0  0  0  0  0  0  0  0  0
    7.6390   47.6830   43.2140 C   0  0  0  0  0  0  0  0  0  0  0  0
    7.4320   50.2280   43.4900 C   0  0  0  0  0  0  0  0  0  0  0  0
    7.7450   51.3490   44.2730 C   0  0  0  0  0  0  0  0  0  0  0  0
    7.8070   52.6200   43.6850 C   0  0  0  0  0  0  0  0  0  0  0  0
    8.2010   53.7680   44.5560 C   0  0  0  0  0  0  0  0  0  0  0  0
    7.4840   52.7060   42.3580 C   0  0  0  0  0  0  0  0  0  0  0  0
    7.1440   51.6660   41.5760 N   0  0  0  0  0  0  0  0  0  0  0  0
    7.1420   50.4430   42.1600 C   0  0  0  0  0  0  0  0  0  0  0  0
    7.4530   53.9000   41.6950 O   0  0  0  0  0  0  0  0  0  0  0  0
    7.1170   54.5340   42.3290 H   0  0  0  0  0  0  0  0  0  0  0  0
    6.8230   45.8780   44.5690 O   0  0  0  0  0  0  0  0  0  0  0  0
    6.0770   46.4900   44.5450 H   0  0  0  0  0  0  0  0  0  0  0  0
   10.0830   47.0040   45.7130 C   0  0  0  0  0  0  0  0  0  0  0  0
   10.6300   47.7330   46.7620 O   0  0  0  0  0  0  0  0  0  0  0  0
   10.5220   47.0170   48.2250 P   0  0  0  0  0  0  0  0  0  0  0  0
    9.1130   47.3570   48.6710 O   0  0  0  0  0  0  0  0  0  0  0  0
   10.7640   45.5540   47.9600 O   0  0  0  0  0  0  0  0  0  0  0  0
   11.5930   47.7160   49.0510 O   0  0  0  0  0  0  0  0  0  0  0  0
  1 15  1  1  0  0  0
  1  2  1  0  0  0  0
  2 17  1  6  0  0  0
  3  2  1  0  0  0  0
  4  6  1  6  0  0  0
  4  3  1  0  0  0  0
  5  4  1  0  0  0  0
  5  1  1  0  0  0  0
  6  7  1  0  0  0  0
  8  7  2  0  0  0  0
  8  9  1  0  0  0  0
 10  8  1  0  0  0  0
 11 12  1  0  0  0  0
 11 10  2  0  0  0  0
 12  6  2  0  0  0  0
 13 14  1  0  0  0  0
 13 10  1  0  0  0  0
 16 15  1  0  0  0  0
 17 18  1  0  0  0  0
 18 19  1  0  0  0  0
 19 20  1  0  0  0  0
 19 22  1  0  0  0  0
 21 19  2  0  0  0  0
M  END
>  <minimizedAffinity>
-7.44797611

$$$$

 OpenBabel12271914593D

 22 23  0  0  1  0  0  0  0  0999 V2000
    7.9890   46.6420   43.5410 C   0  0  2  0  0  0  0  0  0  0  0  0
    7.8820   47.8350   44.5170 C   0  0  2  0  0  0  0  0  0  0  0  0
    7.4390   48.9720   43.7410 O   0  0  0  0  0  0  0  0  0  0  0  0
    6.8560   48.4620   42.5470 C   0  0  2  0  0  0  0  0  0  0  0  0
    7.7100   47.2540   42.1820 C   0  0  0  0  0  0  0  0  0  0  0  0
    6.7420   49.5340   41.5030 C   0  0  0  0  0  0  0  0  0  0  0  0
    7.0500   50.8570   41.8520 C   0  0  0  0  0  0  0  0  0  0  0  0
    6.9880   51.8710   40.8860 C   0  0  0  0  0  0  0  0  0  0  0  0
    7.3810   53.2500   41.3030 C   0  0  0  0  0  0  0  0  0  0  0  0
    6.5540   51.5130   39.6380 C   0  0  0  0  0  0  0  0  0  0  0  0
    6.2150   50.2650   39.2660 N   0  0  0  0  0  0  0  0  0  0  0  0
    6.3340   49.2970   40.2080 C   0  0  0  0  0  0  0  0  0  0  0  0
    6.3980   52.4260   38.6350 O   0  0  0  0  0  0  0  0  0  0  0  0
    6.0760   53.2200   39.0630 H   0  0  0  0  0  0  0  0  0  0  0  0
    6.9790   45.6530   43.8150 O   0  0  0  0  0  0  0  0  0  0  0  0
    6.1570   45.9260   43.3900 H   0  0  0  0  0  0  0  0  0  0  0  0
    9.1830   48.1310   45.3020 C   0  0  0  0  0  0  0  0  0  0  0  0
    9.9990   47.0210   45.4870 O   0  0  0  0  0  0  0  0  0  0  0  0
   10.1820   46.5540   47.0410 P   0  0  0  0  0  0  0  0  0  0  0  0
    9.8610   45.0730   46.9940 O   0  0  0  0  0  0  0  0  0  0  0  0
   11.6140   46.8790   47.3780 O   0  0  0  0  0  0  0  0  0  0  0  0
    9.1350   47.3670   47.7890 O   0  0  0  0  0  0  0  0  0  0  0  0
  1 15  1  1  0  0  0
  1  2  1  0  0  0  0
  2 17  1  6  0  0  0
  3  2  1  0  0  0  0
  4  6  1  6  0  0  0
  4  3  1  0  0  0  0
  5  4  1  0  0  0  0
  5  1  1  0  0  0  0
  6  7  1  0  0  0  0
  8  9  1  0  0  0  0
  8  7  2  0  0  0  0
 10  8  1  0  0  0  0
 11 10  2  0  0  0  0
 11 12  1  0  0  0  0
 12  6  2  0  0  0  0
 13 14  1  0  0  0  0
 13 10  1  0  0  0  0
 16 15  1  0  0  0  0
 17 18  1  0  0  0  0
 18 19  1  0  0  0  0
 19 21  1  0  0  0  0
 19 22  1  0  0  0  0
 20 19  2  0  0  0  0
M  END
>  <minimizedAffinity>
-7.43943882

$$$$

 OpenBabel12271914593D

 22 23  0  0  1  0  0  0  0  0999 V2000
    7.7270   46.7850   42.0100 C   0  0  2  0  0  0  0  0  0  0  0  0
    6.9750   46.7090   43.3580 C   0  0  2  0  0  0  0  0  0  0  0  0
    6.8920   48.0600   43.8670 O   0  0  0  0  0  0  0  0  0  0  0  0
    7.1050   48.9360   42.7670 C   0  0  2  0  0  0  0  0  0  0  0  0
    8.1540   48.2370   41.9100 C   0  0  0  0  0  0  0  0  0  0  0  0
    7.4490   50.3190   43.2380 C   0  0  0  0  0  0  0  0  0  0  0  0
    7.3640   51.3850   42.3300 C   0  0  0  0  0  0  0  0  0  0  0  0
    7.6440   52.6920   42.7540 C   0  0  0  0  0  0  0  0  0  0  0  0
    7.4820   53.7930   41.7580 C   0  0  0  0  0  0  0  0  0  0  0  0
    8.0590   52.8480   44.0490 C   0  0  0  0  0  0  0  0  0  0  0  0
    8.1880   51.8530   44.9450 N   0  0  0  0  0  0  0  0  0  0  0  0
    7.8630   50.6080   44.5200 C   0  0  0  0  0  0  0  0  0  0  0  0
    8.4140   54.0660   44.5540 O   0  0  0  0  0  0  0  0  0  0  0  0
    8.8520   54.5210   43.8340 H   0  0  0  0  0  0  0  0  0  0  0  0
    6.8480   46.4880   40.9080 O   0  0  0  0  0  0  0  0  0  0  0  0
    6.3590   47.2880   40.6790 H   0  0  0  0  0  0  0  0  0  0  0  0
    7.6050   45.7330   44.3810 C   0  0  0  0  0  0  0  0  0  0  0  0
    7.5980   46.2010   45.6900 O   0  0  0  0  0  0  0  0  0  0  0  0
    9.0750   46.3780   46.3640 P   0  0  0  0  0  0  0  0  0  0  0  0
    8.7920   47.2190   47.5940 O   0  0  0  0  0  0  0  0  0  0  0  0
    9.5410   44.9750   46.6520 O   0  0  0  0  0  0  0  0  0  0  0  0
    9.8710   47.1250   45.3020 O   0  0  0  0  0  0  0  0  0  0  0  0
  1 15  1  6  0  0  0
  1  2  1  0  0  0  0
  2  3  1  0  0  0  0
  2 17  1  1  0  0  0
  4  6  1  1  0  0  0
  4  3  1  0  0  0  0
  5  1  1  0  0  0  0
  5  4  1  0  0  0  0
  6 12  2  0  0  0  0
  7  8  2  0  0  0  0
  7  6  1  0  0  0  0
  8 10  1  0  0  0  0
  9  8  1  0  0  0  0
 10 13  1  0  0  0  0
 10 11  2  0  0  0  0
 12 11  1  0  0  0  0
 14 13  1  0  0  0  0
 16 15  1  0  0  0  0
 17 18  1  0  0  0  0
 18 19  1  0  0  0  0
 19 21  1  0  0  0  0
 19 20  1  0  0  0  0
 22 19  2  0  0  0  0
M  END
>  <minimizedAffinity>
-7.11121178

$$$$

 OpenBabel12271914593D

 22 23  0  0  1  0  0  0  0  0999 V2000
    7.2220   46.0480   43.6040 C   0  0  2  0  0  0  0  0  0  0  0  0
    8.7160   46.3010   43.3000 C   0  0  2  0  0  0  0  0  0  0  0  0
    8.8390   47.6980   42.9470 O   0  0  0  0  0  0  0  0  0  0  0  0
    7.6840   48.3600   43.4470 C   0  0  2  0  0  0  0  0  0  0  0  0
    6.5490   47.3610   43.2560 C   0  0  0  0  0  0  0  0  0  0  0  0
    7.5050   49.7000   42.7930 C   0  0  0  0  0  0  0  0  0  0  0  0
    6.9320   49.7600   41.5140 C   0  0  0  0  0  0  0  0  0  0  0  0
    6.7200   51.0010   40.8980 C   0  0  0  0  0  0  0  0  0  0  0  0
    6.0550   51.0050   39.5600 C   0  0  0  0  0  0  0  0  0  0  0  0
    7.1570   52.1100   41.5700 C   0  0  0  0  0  0  0  0  0  0  0  0
    7.7430   52.0990   42.7820 N   0  0  0  0  0  0  0  0  0  0  0  0
    7.8880   50.8900   43.3740 C   0  0  0  0  0  0  0  0  0  0  0  0
    7.0570   53.3650   41.0400 O   0  0  0  0  0  0  0  0  0  0  0  0
    7.2170   53.2580   40.1030 H   0  0  0  0  0  0  0  0  0  0  0  0
    7.0150   45.7840   45.0050 O   0  0  0  0  0  0  0  0  0  0  0  0
    6.9670   46.6260   45.4740 H   0  0  0  0  0  0  0  0  0  0  0  0
    9.3100   45.3670   42.2180 C   0  0  0  0  0  0  0  0  0  0  0  0
    9.4520   45.9620   40.9700 O   0  0  0  0  0  0  0  0  0  0  0  0
    8.3320   45.5200   39.8670 P   0  0  0  0  0  0  0  0  0  0  0  0
    7.3760   46.6970   39.8590 O   0  0  0  0  0  0  0  0  0  0  0  0
    9.1030   45.3260   38.5880 O   0  0  0  0  0  0  0  0  0  0  0  0
    7.7190   44.2590   40.4580 O   0  0  0  0  0  0  0  0  0  0  0  0
  1 15  1  1  0  0  0
  2 17  1  6  0  0  0
  2  1  1  0  0  0  0
  3  2  1  0  0  0  0
  3  4  1  0  0  0  0
  4  6  1  6  0  0  0
  5  4  1  0  0  0  0
  5  1  1  0  0  0  0
  6 12  2  0  0  0  0
  7  6  1  0  0  0  0
  8  7  2  0  0  0  0
  8 10  1  0  0  0  0
  9  8  1  0  0  0  0
 10 11  2  0  0  0  0
 11 12  1  0  0  0  0
 13 10  1  0  0  0  0
 14 13  1  0  0  0  0
 15 16  1  0  0  0  0
 18 17  1  0  0  0  0
 19 22  1  0  0  0  0
 19 18  1  0  0  0  0
 20 19  1  0  0  0  0
 21 19  2  0  0  0  0
M  END
>  <minimizedAffinity>
-7.10212374

$$$$

 OpenBabel12271914593D

 22 23  0  0  1  0  0  0  0  0999 V2000
    7.2120   48.0420   43.2360 C   0  0  2  0  0  0  0  0  0  0  0  0
    8.1690   49.2540   43.2900 C   0  0  2  0  0  0  0  0  0  0  0  0
    9.0380   49.0490   44.4270 O   0  0  0  0  0  0  0  0  0  0  0  0
    8.9840   47.6650   44.7520 C   0  0  2  0  0  0  0  0  0  0  0  0
    7.5380   47.2600   44.4930 C   0  0  0  0  0  0  0  0  0  0  0  0
    9.5050   47.4160   46.1380 C   0  0  0  0  0  0  0  0  0  0  0  0
    8.5950   47.3470   47.2030 C   0  0  0  0  0  0  0  0  0  0  0  0
    9.0520   47.0780   48.5000 C   0  0  0  0  0  0  0  0  0  0  0  0
    8.0300   46.9600   49.5840 C   0  0  0  0  0  0  0  0  0  0  0  0
   10.4050   46.9620   48.6700 C   0  0  0  0  0  0  0  0  0  0  0  0
   11.3180   47.0550   47.6860 N   0  0  0  0  0  0  0  0  0  0  0  0
   10.8430   47.2640   46.4350 C   0  0  0  0  0  0  0  0  0  0  0  0
   10.9670   46.7590   49.8980 O   0  0  0  0  0  0  0  0  0  0  0  0
   10.4320   47.2670   50.5080 H   0  0  0  0  0  0  0  0  0  0  0  0
    7.4890   47.2100   42.0940 O   0  0  0  0  0  0  0  0  0  0  0  0
    8.2210   46.6200   42.3120 H   0  0  0  0  0  0  0  0  0  0  0  0
    7.4540   50.6250   43.3350 C   0  0  0  0  0  0  0  0  0  0  0  0
    8.2500   51.6650   43.8020 O   0  0  0  0  0  0  0  0  0  0  0  0
    7.4330   52.9070   44.4760 P   0  0  0  0  0  0  0  0  0  0  0  0
    6.6560   52.2400   45.5940 O   0  0  0  0  0  0  0  0  0  0  0  0
    8.4970   53.8700   44.9340 O   0  0  0  0  0  0  0  0  0  0  0  0
    6.5410   53.4080   43.3490 O   0  0  0  0  0  0  0  0  0  0  0  0
  1 15  1  6  0  0  0
  1  2  1  0  0  0  0
  1  5  1  0  0  0  0
  2 17  1  1  0  0  0
  2  3  1  0  0  0  0
  3  4  1  0  0  0  0
  4  6  1  1  0  0  0
  5  4  1  0  0  0  0
  6 12  2  0  0  0  0
  6  7  1  0  0  0  0
  7  8  2  0  0  0  0
  8 10  1  0  0  0  0
  8  9  1  0  0  0  0
 10 13  1  0  0  0  0
 11 10  2  0  0  0  0
 12 11  1  0  0  0  0
 13 14  1  0  0  0  0
 15 16  1  0  0  0  0
 17 18  1  0  0  0  0
 18 19  1  0  0  0  0
 19 21  1  0  0  0  0
 19 20  1  0  0  0  0
 22 19  2  0  0  0  0
M  END
>  <minimizedAffinity>
-6.94556665

$$$$

 OpenBabel12271914593D

 22 23  0  0  1  0  0  0  0  0999 V2000
    7.0190   48.1020   42.5210 C   0  0  2  0  0  0  0  0  0  0  0  0
    7.8170   49.3200   43.0390 C   0  0  2  0  0  0  0  0  0  0  0  0
    8.0210   49.1140   44.4550 O   0  0  0  0  0  0  0  0  0  0  0  0
    7.8270   47.7270   44.7090 C   0  0  2  0  0  0  0  0  0  0  0  0
    6.6960   47.3150   43.7750 C   0  0  0  0  0  0  0  0  0  0  0  0
    7.6060   47.4730   46.1720 C   0  0  0  0  0  0  0  0  0  0  0  0
    8.7210   47.3040   47.0070 C   0  0  0  0  0  0  0  0  0  0  0  0
    8.5430   47.1020   48.3820 C   0  0  0  0  0  0  0  0  0  0  0  0
    9.7670   46.9850   49.2290 C   0  0  0  0  0  0  0  0  0  0  0  0
    7.2540   47.0120   48.8340 C   0  0  0  0  0  0  0  0  0  0  0  0
    6.1550   47.1330   48.0670 N   0  0  0  0  0  0  0  0  0  0  0  0
    6.3590   47.3780   46.7500 C   0  0  0  0  0  0  0  0  0  0  0  0
    6.9610   46.7590   50.1440 O   0  0  0  0  0  0  0  0  0  0  0  0
    7.6340   46.1460   50.4410 H   0  0  0  0  0  0  0  0  0  0  0  0
    7.8260   47.2800   41.6580 O   0  0  0  0  0  0  0  0  0  0  0  0
    8.3640   46.6930   42.2040 H   0  0  0  0  0  0  0  0  0  0  0  0
    7.1600   50.6870   42.7320 C   0  0  0  0  0  0  0  0  0  0  0  0
    7.9730   51.7810   43.0050 O   0  0  0  0  0  0  0  0  0  0  0  0
    7.2980   52.9140   43.9680 P   0  0  0  0  0  0  0  0  0  0  0  0
    6.4300   53.7060   43.0110 O   0  0  0  0  0  0  0  0  0  0  0  0
    6.5400   52.1350   45.0110 O   0  0  0  0  0  0  0  0  0  0  0  0
    8.4910   53.7060   44.4850 O   0  0  0  0  0  0  0  0  0  0  0  0
  1 15  1  6  0  0  0
  1  2  1  0  0  0  0
  1  5  1  0  0  0  0
  2 17  1  1  0  0  0
  2  3  1  0  0  0  0
  3  4  1  0  0  0  0
  4  6  1  1  0  0  0
  5  4  1  0  0  0  0
  6 12  2  0  0  0  0
  6  7  1  0  0  0  0
  7  8  2  0  0  0  0
  8 10  1  0  0  0  0
  8  9  1  0  0  0  0
 10 13  1  0  0  0  0
 11 10  2  0  0  0  0
 12 11  1  0  0  0  0
 13 14  1  0  0  0  0
 15 16  1  0  0  0  0
 17 18  1  0  0  0  0
 18 19  1  0  0  0  0
 19 22  1  0  0  0  0
 19 21  1  0  0  0  0
 20 19  2  0  0  0  0
M  END
>  <minimizedAffinity>
-6.91670227

$$$$

 OpenBabel12271914593D

 22 23  0  0  1  0  0  0  0  0999 V2000
    7.6610   45.7590   44.2050 C   0  0  2  0  0  0  0  0  0  0  0  0
    9.0010   46.0700   43.5000 C   0  0  2  0  0  0  0  0  0  0  0  0
    9.0170   47.4930   43.2440 O   0  0  0  0  0  0  0  0  0  0  0  0
    8.0590   48.0860   44.1130 C   0  0  2  0  0  0  0  0  0  0  0  0
    6.9170   47.0790   44.1790 C   0  0  0  0  0  0  0  0  0  0  0  0
    7.6980   49.4690   43.6540 C   0  0  0  0  0  0  0  0  0  0  0  0
    7.7680   50.5280   44.5710 C   0  0  0  0  0  0  0  0  0  0  0  0
    7.4730   51.8350   44.1590 C   0  0  0  0  0  0  0  0  0  0  0  0
    7.6200   52.9290   45.1650 C   0  0  0  0  0  0  0  0  0  0  0  0
    7.0570   51.9980   42.8650 C   0  0  0  0  0  0  0  0  0  0  0  0
    6.9410   51.0090   41.9600 N   0  0  0  0  0  0  0  0  0  0  0  0
    7.2820   49.7650   42.3740 C   0  0  0  0  0  0  0  0  0  0  0  0
    6.6860   53.2160   42.3710 O   0  0  0  0  0  0  0  0  0  0  0  0
    6.2420   53.6590   43.0940 H   0  0  0  0  0  0  0  0  0  0  0  0
    7.8730   45.3790   45.5780 O   0  0  0  0  0  0  0  0  0  0  0  0
    7.9650   46.1800   46.1090 H   0  0  0  0  0  0  0  0  0  0  0  0
    9.2510   45.2390   42.2190 C   0  0  0  0  0  0  0  0  0  0  0  0
    9.3840   46.0030   41.0650 O   0  0  0  0  0  0  0  0  0  0  0  0
    8.2730   45.6970   39.9080 P   0  0  0  0  0  0  0  0  0  0  0  0
    7.3800   46.9210   39.9580 O   0  0  0  0  0  0  0  0  0  0  0  0
    9.0670   45.5480   38.6370 O   0  0  0  0  0  0  0  0  0  0  0  0
    7.5790   44.4330   40.3960 O   0  0  0  0  0  0  0  0  0  0  0  0
  1 15  1  1  0  0  0
  2 17  1  6  0  0  0
  2  1  1  0  0  0  0
  3  2  1  0  0  0  0
  3  4  1  0  0  0  0
  4  6  1  6  0  0  0
  4  5  1  0  0  0  0
  5  1  1  0  0  0  0
  6  7  1  0  0  0  0
  8  7  2  0  0  0  0
  8  9  1  0  0  0  0
 10  8  1  0  0  0  0
 11 12  1  0  0  0  0
 11 10  2  0  0  0  0
 12  6  2  0  0  0  0
 13 10  1  0  0  0  0
 13 14  1  0  0  0  0
 15 16  1  0  0  0  0
 18 17  1  0  0  0  0
 19 20  1  0  0  0  0
 19 22  1  0  0  0  0
 19 18  1  0  0  0  0
 21 19  2  0  0  0  0
M  END
>  <minimizedAffinity>
-6.91526985

$$$$

 OpenBabel12271914593D

 22 23  0  0  1  0  0  0  0  0999 V2000
    6.8540   49.4330   38.3150 C   0  0  2  0  0  0  0  0  0  0  0  0
    6.5020   48.5000   39.4960 C   0  0  2  0  0  0  0  0  0  0  0  0
    6.5700   49.3020   40.6970 O   0  0  0  0  0  0  0  0  0  0  0  0
    6.4770   50.6640   40.2970 C   0  0  2  0  0  0  0  0  0  0  0  0
    7.2450   50.7370   38.9830 C   0  0  0  0  0  0  0  0  0  0  0  0
    6.9450   51.5800   41.3900 C   0  0  0  0  0  0  0  0  0  0  0  0
    6.9440   51.1130   42.7130 C   0  0  0  0  0  0  0  0  0  0  0  0
    7.4110   51.9360   43.7480 C   0  0  0  0  0  0  0  0  0  0  0  0
    7.4400   51.3640   45.1270 C   0  0  0  0  0  0  0  0  0  0  0  0
    7.7890   53.2060   43.4070 C   0  0  0  0  0  0  0  0  0  0  0  0
    7.7740   53.7090   42.1600 N   0  0  0  0  0  0  0  0  0  0  0  0
    7.3660   52.8740   41.1740 C   0  0  0  0  0  0  0  0  0  0  0  0
    8.2040   54.1130   44.3400 O   0  0  0  0  0  0  0  0  0  0  0  0
    7.6650   53.9460   45.1140 H   0  0  0  0  0  0  0  0  0  0  0  0
    5.7040   49.6710   37.4810 O   0  0  0  0  0  0  0  0  0  0  0  0
    5.1750   50.3740   37.8780 H   0  0  0  0  0  0  0  0  0  0  0  0
    7.3840   47.2310   39.5860 C   0  0  0  0  0  0  0  0  0  0  0  0
    8.2350   47.2080   40.6840 O   0  0  0  0  0  0  0  0  0  0  0  0
    8.2600   45.7970   41.5050 P   0  0  0  0  0  0  0  0  0  0  0  0
    7.5220   44.8490   40.5790 O   0  0  0  0  0  0  0  0  0  0  0  0
    9.7210   45.4830   41.6940 O   0  0  0  0  0  0  0  0  0  0  0  0
    7.4880   46.1050   42.7800 O   0  0  0  0  0  0  0  0  0  0  0  0
  1 15  1  6  0  0  0
  1  5  1  0  0  0  0
  1  2  1  0  0  0  0
  2 17  1  1  0  0  0
  2  3  1  0  0  0  0
  4  3  1  0  0  0  0
  4  6  1  1  0  0  0
  5  4  1  0  0  0  0
  6  7  1  0  0  0  0
  7  8  2  0  0  0  0
  8  9  1  0  0  0  0
 10  8  1  0  0  0  0
 10 13  1  0  0  0  0
 11 10  2  0  0  0  0
 12  6  2  0  0  0  0
 12 11  1  0  0  0  0
 13 14  1  0  0  0  0
 15 16  1  0  0  0  0
 17 18  1  0  0  0  0
 18 19  1  0  0  0  0
 19 21  1  0  0  0  0
 19 22  1  0  0  0  0
 20 19  2  0  0  0  0
M  END
>  <minimizedAffinity>
-6.87627029

$$$$
