
 OpenBabel12271914563D

 30 33  0  0  1  0  0  0  0  0999 V2000
    9.6630   47.8150   45.0600 C   0  0  1  0  0  0  0  0  0  0  0  0
   10.9880   48.2560   45.4810 N   0  0  0  0  0  0  0  0  0  0  0  0
   10.9860   49.1290   45.9660 H   0  0  0  0  0  0  0  0  0  0  0  0
   11.3390   47.2560   46.4430 O   0  0  0  0  0  0  0  0  0  0  0  0
   10.1920   46.9710   47.2310 C   0  0  2  0  0  0  0  0  0  0  0  0
   10.3270   47.7820   48.5120 C   0  0  1  0  0  0  0  0  0  0  0  0
    9.3810   47.2320   49.5650 C   0  0  2  0  0  0  0  0  0  0  0  0
    9.7580   45.7620   49.8650 C   0  0  1  0  0  0  0  0  0  0  0  0
   10.0510   44.9500   48.6140 C   0  0  2  0  0  0  0  0  0  0  0  0
   10.0380   45.5870   47.3810 O   0  0  0  0  0  0  0  0  0  0  0  0
    9.0030   47.4270   46.3650 C   0  0  0  0  0  0  0  0  0  0  0  0
    8.8820   48.8760   44.3300 C   0  0  0  0  0  0  0  0  0  0  0  0
    8.2470   48.5130   43.1530 C   0  0  0  0  0  0  0  0  0  0  0  0
    7.5330   49.4380   42.4110 C   0  0  0  0  0  0  0  0  0  0  0  0
    7.4390   50.7670   42.8630 C   0  0  0  0  0  0  0  0  0  0  0  0
    6.7370   51.7350   42.1190 C   0  0  0  0  0  0  0  0  0  0  0  0
    6.6580   53.0420   42.5750 C   0  0  0  0  0  0  0  0  0  0  0  0
    7.2640   53.4230   43.7560 C   0  0  0  0  0  0  0  0  0  0  0  0
    7.9580   52.4830   44.4970 C   0  0  0  0  0  0  0  0  0  0  0  0
    8.0520   51.1490   44.0560 C   0  0  0  0  0  0  0  0  0  0  0  0
    8.7630   50.1840   44.7900 C   0  0  0  0  0  0  0  0  0  0  0  0
    8.0450   47.3560   49.1280 O   0  0  0  0  0  0  0  0  0  0  0  0
    7.4730   46.7550   49.6600 H   0  0  0  0  0  0  0  0  0  0  0  0
   11.6570   47.7600   49.0030 O   0  0  0  0  0  0  0  0  0  0  0  0
   12.1910   47.1310   48.4650 H   0  0  0  0  0  0  0  0  0  0  0  0
   10.8740   45.7080   50.7460 O   0  0  0  0  0  0  0  0  0  0  0  0
   10.6660   46.1380   51.5950 H   0  0  0  0  0  0  0  0  0  0  0  0
    9.0240   43.7950   48.4910 C   0  0  0  0  0  0  0  0  0  0  0  0
    8.8910   43.3440   47.1500 O   0  0  0  0  0  0  0  0  0  0  0  0
    8.9040   42.3600   47.1320 H   0  0  0  0  0  0  0  0  0  0  0  0
  1 12  1  1  0  0  0
  1  2  1  0  0  0  0
  1 11  1  0  0  0  0
  2  3  1  0  0  0  0
  2  4  1  0  0  0  0
  4  5  1  0  0  0  0
  5 11  1  6  0  0  0
  5 10  1  0  0  0  0
  6  5  1  6  0  0  0
  6 24  1  0  0  0  0
  6  7  1  0  0  0  0
  7 22  1  6  0  0  0
  7  8  1  0  0  0  0
  8 26  1  1  0  0  0
  9 28  1  6  0  0  0
  9  8  1  0  0  0  0
 10  9  1  0  0  0  0
 12 21  1  0  0  0  0
 13 12  2  0  0  0  0
 14 15  2  0  0  0  0
 14 13  1  0  0  0  0
 15 20  1  0  0  0  0
 16 17  2  0  0  0  0
 16 15  1  0  0  0  0
 17 18  1  0  0  0  0
 18 19  2  0  0  0  0
 20 19  1  0  0  0  0
 20 21  2  0  0  0  0
 22 23  1  0  0  0  0
 25 24  1  0  0  0  0
 26 27  1  0  0  0  0
 29 28  1  0  0  0  0
 30 29  1  0  0  0  0
M  END
>  <minimizedAffinity>
-10.4826641

$$$$

 OpenBabel12271914563D

 30 33  0  0  1  0  0  0  0  0999 V2000
    7.2270   48.7490   45.2840 C   0  0  1  0  0  0  0  0  0  0  0  0
    6.6900   47.4330   44.9560 N   0  0  0  0  0  0  0  0  0  0  0  0
    7.0990   47.0230   44.1420 H   0  0  0  0  0  0  0  0  0  0  0  0
    7.1280   46.6510   46.0710 O   0  0  0  0  0  0  0  0  0  0  0  0
    8.4610   47.0270   46.3860 C   0  0  2  0  0  0  0  0  0  0  0  0
    9.3740   46.0010   45.7280 C   0  0  1  0  0  0  0  0  0  0  0  0
   10.7590   46.0830   46.3450 C   0  0  2  0  0  0  0  0  0  0  0  0
   10.6600   45.7640   47.8540 C   0  0  1  0  0  0  0  0  0  0  0  0
    9.4870   46.4490   48.5380 C   0  0  2  0  0  0  0  0  0  0  0  0
    8.6050   47.1950   47.7690 O   0  0  0  0  0  0  0  0  0  0  0  0
    8.6200   48.4340   45.7810 C   0  0  0  0  0  0  0  0  0  0  0  0
    7.2490   49.6960   44.1120 C   0  0  0  0  0  0  0  0  0  0  0  0
    7.0510   49.1630   42.8490 C   0  0  0  0  0  0  0  0  0  0  0  0
    7.0840   49.9640   41.7210 C   0  0  0  0  0  0  0  0  0  0  0  0
    7.3110   51.3450   41.8570 C   0  0  0  0  0  0  0  0  0  0  0  0
    7.3710   52.1820   40.7260 C   0  0  0  0  0  0  0  0  0  0  0  0
    7.6020   53.5410   40.8770 C   0  0  0  0  0  0  0  0  0  0  0  0
    7.7810   54.1010   42.1270 C   0  0  0  0  0  0  0  0  0  0  0  0
    7.7260   53.2900   43.2470 C   0  0  0  0  0  0  0  0  0  0  0  0
    7.4920   51.9070   43.1210 C   0  0  0  0  0  0  0  0  0  0  0  0
    7.4450   51.0670   44.2470 C   0  0  0  0  0  0  0  0  0  0  0  0
   11.3190   47.3560   46.1090 O   0  0  0  0  0  0  0  0  0  0  0  0
   12.0660   47.5030   46.7360 H   0  0  0  0  0  0  0  0  0  0  0  0
    8.8630   44.6860   45.8680 O   0  0  0  0  0  0  0  0  0  0  0  0
    8.0750   44.7050   46.4590 H   0  0  0  0  0  0  0  0  0  0  0  0
   10.5810   44.3590   48.0590 O   0  0  0  0  0  0  0  0  0  0  0  0
   11.3770   43.9130   47.7160 H   0  0  0  0  0  0  0  0  0  0  0  0
   10.0140   47.4250   49.6210 C   0  0  0  0  0  0  0  0  0  0  0  0
   11.3070   47.9220   49.3040 O   0  0  0  0  0  0  0  0  0  0  0  0
   11.3310   48.8940   49.4550 H   0  0  0  0  0  0  0  0  0  0  0  0
  1 12  1  6  0  0  0
  1 11  1  0  0  0  0
  2  1  1  0  0  0  0
  2  4  1  0  0  0  0
  3  2  1  0  0  0  0
  4  5  1  0  0  0  0
  5 11  1  6  0  0  0
  5 10  1  0  0  0  0
  6 24  1  0  0  0  0
  6  7  1  0  0  0  0
  6  5  1  1  0  0  0
  7 22  1  1  0  0  0
  7  8  1  0  0  0  0
  8 26  1  6  0  0  0
  8  9  1  0  0  0  0
  9 28  1  1  0  0  0
 10  9  1  0  0  0  0
 12 21  1  0  0  0  0
 13 12  2  0  0  0  0
 14 15  2  0  0  0  0
 14 13  1  0  0  0  0
 15 20  1  0  0  0  0
 16 17  2  0  0  0  0
 16 15  1  0  0  0  0
 17 18  1  0  0  0  0
 18 19  2  0  0  0  0
 20 19  1  0  0  0  0
 20 21  2  0  0  0  0
 22 23  1  0  0  0  0
 24 25  1  0  0  0  0
 27 26  1  0  0  0  0
 29 30  1  0  0  0  0
 29 28  1  0  0  0  0
M  END
>  <minimizedAffinity>
-9.89312744

$$$$

 OpenBabel12271914563D

 30 33  0  0  1  0  0  0  0  0999 V2000
    7.3230   47.4650   41.2200 C   0  0  1  0  0  0  0  0  0  0  0  0
    8.6280   47.2410   40.6080 N   0  0  0  0  0  0  0  0  0  0  0  0
    9.3920   47.5890   41.1490 H   0  0  0  0  0  0  0  0  0  0  0  0
    8.7250   45.8140   40.6360 O   0  0  0  0  0  0  0  0  0  0  0  0
    8.2260   45.3560   41.8850 C   0  0  2  0  0  0  0  0  0  0  0  0
    9.4330   45.1280   42.7830 C   0  0  1  0  0  0  0  0  0  0  0  0
    9.0320   44.2630   43.9650 C   0  0  2  0  0  0  0  0  0  0  0  0
    8.5360   42.8940   43.4440 C   0  0  1  0  0  0  0  0  0  0  0  0
    7.6100   43.0090   42.2420 C   0  0  2  0  0  0  0  0  0  0  0  0
    7.3730   44.2620   41.6950 O   0  0  0  0  0  0  0  0  0  0  0  0
    7.3240   46.5000   42.3850 C   0  0  0  0  0  0  0  0  0  0  0  0
    7.1080   48.8870   41.6690 C   0  0  0  0  0  0  0  0  0  0  0  0
    6.5550   49.7740   40.7590 C   0  0  0  0  0  0  0  0  0  0  0  0
    6.3520   51.1030   41.0880 C   0  0  0  0  0  0  0  0  0  0  0  0
    6.7010   51.5610   42.3710 C   0  0  0  0  0  0  0  0  0  0  0  0
    6.5250   52.9120   42.7270 C   0  0  0  0  0  0  0  0  0  0  0  0
    6.8810   53.3510   43.9940 C   0  0  0  0  0  0  0  0  0  0  0  0
    7.4130   52.4820   44.9260 C   0  0  0  0  0  0  0  0  0  0  0  0
    7.5930   51.1520   44.5900 C   0  0  0  0  0  0  0  0  0  0  0  0
    7.2390   50.6820   43.3100 C   0  0  0  0  0  0  0  0  0  0  0  0
    7.4260   49.3360   42.9470 C   0  0  0  0  0  0  0  0  0  0  0  0
    8.0520   44.9220   44.7370 O   0  0  0  0  0  0  0  0  0  0  0  0
    7.5970   44.2630   45.3130 H   0  0  0  0  0  0  0  0  0  0  0  0
   10.4980   44.5140   42.0770 O   0  0  0  0  0  0  0  0  0  0  0  0
   10.1880   44.2640   41.1750 H   0  0  0  0  0  0  0  0  0  0  0  0
    9.6390   42.0570   43.1220 O   0  0  0  0  0  0  0  0  0  0  0  0
   10.1890   41.8900   43.9090 H   0  0  0  0  0  0  0  0  0  0  0  0
    6.2120   42.4470   42.6070 C   0  0  0  0  0  0  0  0  0  0  0  0
    6.1240   42.0950   43.9800 O   0  0  0  0  0  0  0  0  0  0  0  0
    5.2800   42.4360   44.3540 H   0  0  0  0  0  0  0  0  0  0  0  0
  1 12  1  1  0  0  0
  1 11  1  0  0  0  0
  2  4  1  0  0  0  0
  2  3  1  0  0  0  0
  2  1  1  0  0  0  0
  4  5  1  0  0  0  0
  5 11  1  1  0  0  0
  6  5  1  6  0  0  0
  6  7  1  0  0  0  0
  7 22  1  6  0  0  0
  8 26  1  6  0  0  0
  8  7  1  0  0  0  0
  9 28  1  1  0  0  0
  9  8  1  0  0  0  0
 10  5  1  0  0  0  0
 10  9  1  0  0  0  0
 12 21  2  0  0  0  0
 13 14  2  0  0  0  0
 13 12  1  0  0  0  0
 14 15  1  0  0  0  0
 15 16  2  0  0  0  0
 15 20  1  0  0  0  0
 16 17  1  0  0  0  0
 17 18  2  0  0  0  0
 19 18  1  0  0  0  0
 20 19  2  0  0  0  0
 21 20  1  0  0  0  0
 22 23  1  0  0  0  0
 24  6  1  0  0  0  0
 25 24  1  0  0  0  0
 26 27  1  0  0  0  0
 28 29  1  0  0  0  0
 29 30  1  0  0  0  0
M  END
>  <minimizedAffinity>
-9.77792072

$$$$

 OpenBabel12271914563D

 30 33  0  0  1  0  0  0  0  0999 V2000
    6.4980   48.2330   41.1280 C   0  0  1  0  0  0  0  0  0  0  0  0
    6.7260   47.9670   39.7110 N   0  0  0  0  0  0  0  0  0  0  0  0
    7.6110   48.2900   39.3790 H   0  0  0  0  0  0  0  0  0  0  0  0
    6.7790   46.5370   39.6860 O   0  0  0  0  0  0  0  0  0  0  0  0
    7.5180   46.0950   40.8160 C   0  0  2  0  0  0  0  0  0  0  0  0
    8.9370   45.8290   40.3350 C   0  0  1  0  0  0  0  0  0  0  0  0
    9.6690   44.9770   41.3570 C   0  0  2  0  0  0  0  0  0  0  0  0
    8.9340   43.6250   41.5080 C   0  0  1  0  0  0  0  0  0  0  0  0
    7.4220   43.7700   41.5880 C   0  0  2  0  0  0  0  0  0  0  0  0
    6.8600   45.0290   41.4410 O   0  0  0  0  0  0  0  0  0  0  0  0
    7.4410   47.2680   41.8110 C   0  0  0  0  0  0  0  0  0  0  0  0
    6.7730   49.6610   41.5210 C   0  0  0  0  0  0  0  0  0  0  0  0
    6.6470   50.6340   40.5420 C   0  0  0  0  0  0  0  0  0  0  0  0
    6.9090   51.9650   40.8190 C   0  0  0  0  0  0  0  0  0  0  0  0
    7.2980   52.3400   42.1170 C   0  0  0  0  0  0  0  0  0  0  0  0
    7.5910   53.6830   42.4240 C   0  0  0  0  0  0  0  0  0  0  0  0
    7.9790   54.0360   43.7070 C   0  0  0  0  0  0  0  0  0  0  0  0
    8.0910   53.0880   44.7050 C   0  0  0  0  0  0  0  0  0  0  0  0
    7.8070   51.7640   44.4190 C   0  0  0  0  0  0  0  0  0  0  0  0
    7.4100   51.3800   43.1240 C   0  0  0  0  0  0  0  0  0  0  0  0
    7.1300   50.0380   42.8110 C   0  0  0  0  0  0  0  0  0  0  0  0
    9.7640   45.6670   42.5840 O   0  0  0  0  0  0  0  0  0  0  0  0
    9.9700   45.0240   43.3020 H   0  0  0  0  0  0  0  0  0  0  0  0
    8.9450   45.1800   39.0740 O   0  0  0  0  0  0  0  0  0  0  0  0
    8.0220   44.9410   38.8270 H   0  0  0  0  0  0  0  0  0  0  0  0
    9.2770   42.7530   40.4380 O   0  0  0  0  0  0  0  0  0  0  0  0
   10.2340   42.5680   40.4350 H   0  0  0  0  0  0  0  0  0  0  0  0
    6.9230   43.2540   42.9620 C   0  0  0  0  0  0  0  0  0  0  0  0
    7.1800   44.1850   44.0040 O   0  0  0  0  0  0  0  0  0  0  0  0
    6.3780   44.2790   44.5660 H   0  0  0  0  0  0  0  0  0  0  0  0
  1 12  1  6  0  0  0
  1 11  1  0  0  0  0
  2  1  1  0  0  0  0
  3  2  1  0  0  0  0
  4  2  1  0  0  0  0
  4  5  1  0  0  0  0
  5 10  1  0  0  0  0
  5 11  1  1  0  0  0
  6  5  1  1  0  0  0
  6  7  1  0  0  0  0
  7  8  1  0  0  0  0
  7 22  1  1  0  0  0
  8 26  1  6  0  0  0
  8  9  1  0  0  0  0
  9 28  1  1  0  0  0
 10  9  1  0  0  0  0
 12 21  2  0  0  0  0
 13 14  2  0  0  0  0
 13 12  1  0  0  0  0
 14 15  1  0  0  0  0
 15 16  2  0  0  0  0
 15 20  1  0  0  0  0
 16 17  1  0  0  0  0
 17 18  2  0  0  0  0
 19 18  1  0  0  0  0
 20 19  2  0  0  0  0
 21 20  1  0  0  0  0
 22 23  1  0  0  0  0
 24  6  1  0  0  0  0
 25 24  1  0  0  0  0
 27 26  1  0  0  0  0
 28 29  1  0  0  0  0
 29 30  1  0  0  0  0
M  END
>  <minimizedAffinity>
-9.72861481

$$$$

 OpenBabel12271914563D

 30 33  0  0  1  0  0  0  0  0999 V2000
    7.1020   48.7090   44.9260 C   0  0  1  0  0  0  0  0  0  0  0  0
    7.1150   47.5540   44.0340 N   0  0  0  0  0  0  0  0  0  0  0  0
    7.9000   47.5310   43.4170 H   0  0  0  0  0  0  0  0  0  0  0  0
    7.2890   46.4730   44.9550 O   0  0  0  0  0  0  0  0  0  0  0  0
    8.2410   46.8660   45.9330 C   0  0  2  0  0  0  0  0  0  0  0  0
    9.5790   46.2820   45.5030 C   0  0  1  0  0  0  0  0  0  0  0  0
   10.5430   46.2990   46.6770 C   0  0  2  0  0  0  0  0  0  0  0  0
    9.9650   45.4300   47.8180 C   0  0  1  0  0  0  0  0  0  0  0  0
    8.4810   45.6600   48.0550 C   0  0  2  0  0  0  0  0  0  0  0  0
    7.7920   46.5230   47.2140 O   0  0  0  0  0  0  0  0  0  0  0  0
    8.2280   48.4060   45.8900 C   0  0  0  0  0  0  0  0  0  0  0  0
    7.3110   50.0190   44.2120 C   0  0  0  0  0  0  0  0  0  0  0  0
    7.7250   51.1050   44.9680 C   0  0  0  0  0  0  0  0  0  0  0  0
    7.9120   52.3490   44.3900 C   0  0  0  0  0  0  0  0  0  0  0  0
    7.6910   52.5130   43.0110 C   0  0  0  0  0  0  0  0  0  0  0  0
    7.8530   53.7710   42.3980 C   0  0  0  0  0  0  0  0  0  0  0  0
    7.6250   53.9180   41.0380 C   0  0  0  0  0  0  0  0  0  0  0  0
    7.2340   52.8460   40.2600 C   0  0  0  0  0  0  0  0  0  0  0  0
    7.0700   51.6050   40.8480 C   0  0  0  0  0  0  0  0  0  0  0  0
    7.2960   51.4290   42.2270 C   0  0  0  0  0  0  0  0  0  0  0  0
    7.1210   50.1770   42.8440 C   0  0  0  0  0  0  0  0  0  0  0  0
   10.7790   47.6270   47.0900 O   0  0  0  0  0  0  0  0  0  0  0  0
   11.1570   47.6200   48.0010 H   0  0  0  0  0  0  0  0  0  0  0  0
    9.4350   44.9570   45.0180 O   0  0  0  0  0  0  0  0  0  0  0  0
    8.5080   44.6570   45.1660 H   0  0  0  0  0  0  0  0  0  0  0  0
   10.2020   44.0520   47.5590 O   0  0  0  0  0  0  0  0  0  0  0  0
   11.1570   43.8680   47.5050 H   0  0  0  0  0  0  0  0  0  0  0  0
    8.2640   46.2180   49.4850 C   0  0  0  0  0  0  0  0  0  0  0  0
    8.7490   47.5470   49.6150 O   0  0  0  0  0  0  0  0  0  0  0  0
    8.0810   48.0960   50.0860 H   0  0  0  0  0  0  0  0  0  0  0  0
  1 12  1  6  0  0  0
  1 11  1  0  0  0  0
  2  1  1  0  0  0  0
  2  4  1  0  0  0  0
  3  2  1  0  0  0  0
  4  5  1  0  0  0  0
  5 11  1  6  0  0  0
  5 10  1  0  0  0  0
  6  5  1  1  0  0  0
  6  7  1  0  0  0  0
  7 22  1  1  0  0  0
  7  8  1  0  0  0  0
  8 26  1  6  0  0  0
  8  9  1  0  0  0  0
  9 28  1  1  0  0  0
 10  9  1  0  0  0  0
 12 13  2  0  0  0  0
 14 13  1  0  0  0  0
 15 14  2  0  0  0  0
 16 15  1  0  0  0  0
 17 16  2  0  0  0  0
 18 19  2  0  0  0  0
 18 17  1  0  0  0  0
 19 20  1  0  0  0  0
 20 21  2  0  0  0  0
 20 15  1  0  0  0  0
 21 12  1  0  0  0  0
 22 23  1  0  0  0  0
 24 25  1  0  0  0  0
 24  6  1  0  0  0  0
 27 26  1  0  0  0  0
 28 29  1  0  0  0  0
 29 30  1  0  0  0  0
M  END
>  <minimizedAffinity>
-9.64940166

$$$$

 OpenBabel12271914563D

 30 33  0  0  1  0  0  0  0  0999 V2000
    7.5140   47.2680   42.2420 C   0  0  1  0  0  0  0  0  0  0  0  0
    8.7320   47.0520   41.4680 N   0  0  0  0  0  0  0  0  0  0  0  0
    9.5710   47.2450   41.9740 H   0  0  0  0  0  0  0  0  0  0  0  0
    8.7000   45.6360   41.2580 O   0  0  0  0  0  0  0  0  0  0  0  0
    8.2770   45.0150   42.4640 C   0  0  2  0  0  0  0  0  0  0  0  0
    9.5350   44.5490   43.1830 C   0  0  1  0  0  0  0  0  0  0  0  0
    9.1650   43.5310   44.2470 C   0  0  2  0  0  0  0  0  0  0  0  0
    8.5000   42.3100   43.5700 C   0  0  1  0  0  0  0  0  0  0  0  0
    7.4840   42.6940   42.5060 C   0  0  2  0  0  0  0  0  0  0  0  0
    7.3130   44.0350   42.1930 O   0  0  0  0  0  0  0  0  0  0  0  0
    7.5330   46.1240   43.2310 C   0  0  0  0  0  0  0  0  0  0  0  0
    7.4730   48.6060   42.9310 C   0  0  0  0  0  0  0  0  0  0  0  0
    7.7150   48.6360   44.2950 C   0  0  0  0  0  0  0  0  0  0  0  0
    7.6670   49.8240   45.0040 C   0  0  0  0  0  0  0  0  0  0  0  0
    7.3800   51.0240   44.3300 C   0  0  0  0  0  0  0  0  0  0  0  0
    7.3040   52.2450   45.0280 C   0  0  0  0  0  0  0  0  0  0  0  0
    7.0140   53.4180   44.3490 C   0  0  0  0  0  0  0  0  0  0  0  0
    6.7900   53.4180   42.9860 C   0  0  0  0  0  0  0  0  0  0  0  0
    6.8600   52.2260   42.2870 C   0  0  0  0  0  0  0  0  0  0  0  0
    7.1540   51.0210   42.9530 C   0  0  0  0  0  0  0  0  0  0  0  0
    7.2170   49.7980   42.2610 C   0  0  0  0  0  0  0  0  0  0  0  0
    8.3240   44.1240   45.2130 O   0  0  0  0  0  0  0  0  0  0  0  0
    7.8650   43.4140   45.7210 H   0  0  0  0  0  0  0  0  0  0  0  0
   10.4700   43.9830   42.2800 O   0  0  0  0  0  0  0  0  0  0  0  0
   10.0570   43.9130   41.3870 H   0  0  0  0  0  0  0  0  0  0  0  0
    9.4890   41.4580   43.0050 O   0  0  0  0  0  0  0  0  0  0  0  0
   10.0900   41.1210   43.6930 H   0  0  0  0  0  0  0  0  0  0  0  0
    6.0790   42.1870   42.9210 C   0  0  0  0  0  0  0  0  0  0  0  0
    6.0440   41.7780   44.2810 O   0  0  0  0  0  0  0  0  0  0  0  0
    5.2390   42.1440   44.7130 H   0  0  0  0  0  0  0  0  0  0  0  0
  1 12  1  1  0  0  0
  1 11  1  0  0  0  0
  2  3  1  0  0  0  0
  2  1  1  0  0  0  0
  4  2  1  0  0  0  0
  4  5  1  0  0  0  0
  5 11  1  1  0  0  0
  6  5  1  6  0  0  0
  6  7  1  0  0  0  0
  7 22  1  1  0  0  0
  8 26  1  6  0  0  0
  8  7  1  0  0  0  0
  9 28  1  1  0  0  0
  9  8  1  0  0  0  0
 10  5  1  0  0  0  0
 10  9  1  0  0  0  0
 12 13  1  0  0  0  0
 13 14  2  0  0  0  0
 15 14  1  0  0  0  0
 15 16  2  0  0  0  0
 17 16  1  0  0  0  0
 18 17  2  0  0  0  0
 19 20  2  0  0  0  0
 19 18  1  0  0  0  0
 20 15  1  0  0  0  0
 21 12  2  0  0  0  0
 21 20  1  0  0  0  0
 22 23  1  0  0  0  0
 24  6  1  0  0  0  0
 25 24  1  0  0  0  0
 26 27  1  0  0  0  0
 28 29  1  0  0  0  0
 29 30  1  0  0  0  0
M  END
>  <minimizedAffinity>
-9.37197685

$$$$

 OpenBabel12271914563D

 30 33  0  0  1  0  0  0  0  0999 V2000
    7.8940   50.2300   45.0180 C   0  0  1  0  0  0  0  0  0  0  0  0
    6.6540   49.8050   45.6580 N   0  0  0  0  0  0  0  0  0  0  0  0
    6.0240   49.3360   45.0420 H   0  0  0  0  0  0  0  0  0  0  0  0
    7.1250   48.8220   46.5860 O   0  0  0  0  0  0  0  0  0  0  0  0
    8.1210   48.0390   45.9430 C   0  0  2  0  0  0  0  0  0  0  0  0
    7.4350   46.7720   45.4520 C   0  0  1  0  0  0  0  0  0  0  0  0
    8.4800   45.7190   45.1320 C   0  0  2  0  0  0  0  0  0  0  0  0
    9.2750   45.3880   46.4160 C   0  0  1  0  0  0  0  0  0  0  0  0
    9.6650   46.6210   47.2150 C   0  0  2  0  0  0  0  0  0  0  0  0
    9.2230   47.8650   46.7880 O   0  0  0  0  0  0  0  0  0  0  0  0
    8.6230   48.9250   44.7870 C   0  0  0  0  0  0  0  0  0  0  0  0
    7.6760   50.9870   43.7340 C   0  0  0  0  0  0  0  0  0  0  0  0
    8.0020   52.3340   43.7170 C   0  0  0  0  0  0  0  0  0  0  0  0
    7.8050   53.1030   42.5830 C   0  0  0  0  0  0  0  0  0  0  0  0
    7.2760   52.5080   41.4240 C   0  0  0  0  0  0  0  0  0  0  0  0
    7.0450   53.2690   40.2620 C   0  0  0  0  0  0  0  0  0  0  0  0
    6.5180   52.6690   39.1290 C   0  0  0  0  0  0  0  0  0  0  0  0
    6.2060   51.3230   39.1130 C   0  0  0  0  0  0  0  0  0  0  0  0
    6.4260   50.5630   40.2480 C   0  0  0  0  0  0  0  0  0  0  0  0
    6.9620   51.1480   41.4110 C   0  0  0  0  0  0  0  0  0  0  0  0
    7.1800   50.3940   42.5770 C   0  0  0  0  0  0  0  0  0  0  0  0
    9.3200   46.1710   44.0920 O   0  0  0  0  0  0  0  0  0  0  0  0
   10.1460   45.6320   44.0860 H   0  0  0  0  0  0  0  0  0  0  0  0
    6.5240   46.2690   46.4150 O   0  0  0  0  0  0  0  0  0  0  0  0
    6.6110   46.7900   47.2470 H   0  0  0  0  0  0  0  0  0  0  0  0
    8.5340   44.4960   47.2400 O   0  0  0  0  0  0  0  0  0  0  0  0
    8.3630   43.6570   46.7760 H   0  0  0  0  0  0  0  0  0  0  0  0
   11.2100   46.7330   47.2790 C   0  0  0  0  0  0  0  0  0  0  0  0
   11.6390   47.5430   48.3640 O   0  0  0  0  0  0  0  0  0  0  0  0
   12.3800   47.0970   48.8340 H   0  0  0  0  0  0  0  0  0  0  0  0
  1 12  1  6  0  0  0
  1  2  1  0  0  0  0
  2  4  1  0  0  0  0
  3  2  1  0  0  0  0
  5 11  1  6  0  0  0
  5  4  1  0  0  0  0
  5 10  1  0  0  0  0
  6  5  1  1  0  0  0
  6 24  1  0  0  0  0
  7 22  1  6  0  0  0
  7  6  1  0  0  0  0
  7  8  1  0  0  0  0
  8  9  1  0  0  0  0
  8 26  1  1  0  0  0
  9 28  1  6  0  0  0
 10  9  1  0  0  0  0
 11  1  1  0  0  0  0
 13 12  1  0  0  0  0
 14 13  2  0  0  0  0
 15 14  1  0  0  0  0
 16 15  2  0  0  0  0
 17 16  1  0  0  0  0
 18 17  2  0  0  0  0
 18 19  1  0  0  0  0
 19 20  2  0  0  0  0
 20 15  1  0  0  0  0
 20 21  1  0  0  0  0
 21 12  2  0  0  0  0
 23 22  1  0  0  0  0
 24 25  1  0  0  0  0
 27 26  1  0  0  0  0
 28 29  1  0  0  0  0
 29 30  1  0  0  0  0
M  END
>  <minimizedAffinity>
-9.34724617

$$$$

 OpenBabel12271914563D

 30 33  0  0  1  0  0  0  0  0999 V2000
    8.1930   46.1390   47.2010 C   0  0  1  0  0  0  0  0  0  0  0  0
    9.6160   45.8540   47.3550 N   0  0  0  0  0  0  0  0  0  0  0  0
   10.2000   46.6580   47.2590 H   0  0  0  0  0  0  0  0  0  0  0  0
    9.6890   45.4580   48.7280 O   0  0  0  0  0  0  0  0  0  0  0  0
    8.8560   46.3220   49.4890 C   0  0  2  0  0  0  0  0  0  0  0  0
    9.7610   47.3890   50.0890 C   0  0  1  0  0  0  0  0  0  0  0  0
    9.0380   48.0900   51.2250 C   0  0  2  0  0  0  0  0  0  0  0  0
    8.6960   47.0540   52.3220 C   0  0  1  0  0  0  0  0  0  0  0  0
    8.1460   45.7500   51.7650 C   0  0  2  0  0  0  0  0  0  0  0  0
    8.0810   45.5810   50.3900 O   0  0  0  0  0  0  0  0  0  0  0  0
    7.8600   46.8990   48.4660 C   0  0  0  0  0  0  0  0  0  0  0  0
    7.8730   46.9380   45.9640 C   0  0  0  0  0  0  0  0  0  0  0  0
    7.3810   46.2530   44.8640 C   0  0  0  0  0  0  0  0  0  0  0  0
    7.0900   46.9120   43.6830 C   0  0  0  0  0  0  0  0  0  0  0  0
    7.2830   48.3030   43.5990 C   0  0  0  0  0  0  0  0  0  0  0  0
    7.0140   48.9980   42.4040 C   0  0  0  0  0  0  0  0  0  0  0  0
    7.2150   50.3680   42.3340 C   0  0  0  0  0  0  0  0  0  0  0  0
    7.6830   51.0770   43.4230 C   0  0  0  0  0  0  0  0  0  0  0  0
    7.9530   50.4070   44.6040 C   0  0  0  0  0  0  0  0  0  0  0  0
    7.7560   49.0160   44.7000 C   0  0  0  0  0  0  0  0  0  0  0  0
    8.0360   48.3170   45.8880 C   0  0  0  0  0  0  0  0  0  0  0  0
    7.8870   48.7420   50.7360 O   0  0  0  0  0  0  0  0  0  0  0  0
    7.2830   48.9410   51.4900 H   0  0  0  0  0  0  0  0  0  0  0  0
   10.9760   46.8320   50.5630 O   0  0  0  0  0  0  0  0  0  0  0  0
   10.9290   45.8500   50.5000 H   0  0  0  0  0  0  0  0  0  0  0  0
    9.8390   46.7900   53.1250 O   0  0  0  0  0  0  0  0  0  0  0  0
   10.1440   47.6000   53.5710 H   0  0  0  0  0  0  0  0  0  0  0  0
    6.6970   45.5390   52.2740 C   0  0  0  0  0  0  0  0  0  0  0  0
    5.8250   46.5720   51.8360 O   0  0  0  0  0  0  0  0  0  0  0  0
    4.9890   46.1750   51.5010 H   0  0  0  0  0  0  0  0  0  0  0  0
  1 12  1  6  0  0  0
  1  2  1  0  0  0  0
  1 11  1  0  0  0  0
  2  4  1  0  0  0  0
  3  2  1  0  0  0  0
  4  5  1  0  0  0  0
  5 11  1  6  0  0  0
  5 10  1  0  0  0  0
  6  5  1  1  0  0  0
  6 24  1  0  0  0  0
  6  7  1  0  0  0  0
  7 22  1  6  0  0  0
  7  8  1  0  0  0  0
  8 26  1  6  0  0  0
  9 28  1  6  0  0  0
  9  8  1  0  0  0  0
 10  9  1  0  0  0  0
 13 12  2  0  0  0  0
 14 13  1  0  0  0  0
 15 14  2  0  0  0  0
 15 20  1  0  0  0  0
 16 15  1  0  0  0  0
 17 16  2  0  0  0  0
 17 18  1  0  0  0  0
 18 19  2  0  0  0  0
 19 20  1  0  0  0  0
 20 21  2  0  0  0  0
 21 12  1  0  0  0  0
 22 23  1  0  0  0  0
 25 24  1  0  0  0  0
 26 27  1  0  0  0  0
 29 28  1  0  0  0  0
 30 29  1  0  0  0  0
M  END
>  <minimizedAffinity>
-9.32614803

$$$$

 OpenBabel12271914563D

 30 33  0  0  1  0  0  0  0  0999 V2000
    6.7840   47.8080   44.1650 C   0  0  1  0  0  0  0  0  0  0  0  0
    6.9740   46.4820   43.5870 N   0  0  0  0  0  0  0  0  0  0  0  0
    7.7930   46.4030   43.0210 H   0  0  0  0  0  0  0  0  0  0  0  0
    7.2050   45.6840   44.7520 O   0  0  0  0  0  0  0  0  0  0  0  0
    8.0490   46.4110   45.6330 C   0  0  2  0  0  0  0  0  0  0  0  0
    9.4650   45.9020   45.4050 C   0  0  1  0  0  0  0  0  0  0  0  0
   10.3480   46.3160   46.5690 C   0  0  2  0  0  0  0  0  0  0  0  0
    9.7980   45.6870   47.8700 C   0  0  1  0  0  0  0  0  0  0  0  0
    8.2850   45.7910   47.9940 C   0  0  2  0  0  0  0  0  0  0  0  0
    7.5620   46.3370   46.9440 O   0  0  0  0  0  0  0  0  0  0  0  0
    7.8740   47.8820   45.2100 C   0  0  0  0  0  0  0  0  0  0  0  0
    6.8950   48.9220   43.1570 C   0  0  0  0  0  0  0  0  0  0  0  0
    7.5190   50.0930   43.5570 C   0  0  0  0  0  0  0  0  0  0  0  0
    7.6350   51.1720   42.6980 C   0  0  0  0  0  0  0  0  0  0  0  0
    7.1240   51.0760   41.3920 C   0  0  0  0  0  0  0  0  0  0  0  0
    7.2090   52.1640   40.5010 C   0  0  0  0  0  0  0  0  0  0  0  0
    6.6940   52.0570   39.2180 C   0  0  0  0  0  0  0  0  0  0  0  0
    6.0870   50.8930   38.7880 C   0  0  0  0  0  0  0  0  0  0  0  0
    5.9950   49.8160   39.6520 C   0  0  0  0  0  0  0  0  0  0  0  0
    6.5110   49.9000   40.9600 C   0  0  0  0  0  0  0  0  0  0  0  0
    6.4150   48.8200   41.8550 C   0  0  0  0  0  0  0  0  0  0  0  0
   10.4150   47.7230   46.6490 O   0  0  0  0  0  0  0  0  0  0  0  0
   10.7360   47.9810   47.5450 H   0  0  0  0  0  0  0  0  0  0  0  0
    9.4930   44.4930   45.2580 O   0  0  0  0  0  0  0  0  0  0  0  0
    8.5950   44.1290   45.4440 H   0  0  0  0  0  0  0  0  0  0  0  0
   10.1950   44.3250   47.9670 O   0  0  0  0  0  0  0  0  0  0  0  0
   11.1660   44.2480   47.9920 H   0  0  0  0  0  0  0  0  0  0  0  0
    7.9230   46.6480   49.2330 C   0  0  0  0  0  0  0  0  0  0  0  0
    7.0080   47.6860   48.9110 O   0  0  0  0  0  0  0  0  0  0  0  0
    6.2950   47.7170   49.5890 H   0  0  0  0  0  0  0  0  0  0  0  0
  1 12  1  6  0  0  0
  1 11  1  0  0  0  0
  2  1  1  0  0  0  0
  2  4  1  0  0  0  0
  3  2  1  0  0  0  0
  4  5  1  0  0  0  0
  5 11  1  6  0  0  0
  5 10  1  0  0  0  0
  6  5  1  1  0  0  0
  6  7  1  0  0  0  0
  7 22  1  1  0  0  0
  7  8  1  0  0  0  0
  8 26  1  6  0  0  0
  8  9  1  0  0  0  0
  9 28  1  1  0  0  0
 10  9  1  0  0  0  0
 12 13  1  0  0  0  0
 14 13  2  0  0  0  0
 15 14  1  0  0  0  0
 16 15  2  0  0  0  0
 17 16  1  0  0  0  0
 18 17  2  0  0  0  0
 18 19  1  0  0  0  0
 19 20  2  0  0  0  0
 20 15  1  0  0  0  0
 20 21  1  0  0  0  0
 21 12  2  0  0  0  0
 22 23  1  0  0  0  0
 24  6  1  0  0  0  0
 24 25  1  0  0  0  0
 26 27  1  0  0  0  0
 29 28  1  0  0  0  0
 29 30  1  0  0  0  0
M  END
>  <minimizedAffinity>
-9.13000393

$$$$
