
 OpenBabel12271915043D

 32 35  0  0  1  0  0  0  0  0999 V2000
    8.1790   44.6570   40.0840 C   0  0  1  0  0  0  0  0  0  0  0  0
    8.6390   43.3070   39.7330 N   0  0  0  0  0  0  0  0  0  0  0  0
    7.9720   42.9020   39.0900 H   0  0  0  0  0  0  0  0  0  0  0  0
    8.7230   42.6780   40.5530 H   0  0  0  0  0  0  0  0  0  0  0  0
    9.5480   43.3900   39.2270 H   0  0  0  0  0  0  0  0  0  0  0  0
    9.1380   45.3980   40.9990 C   0  0  0  0  0  0  0  0  0  0  0  0
    8.5720   45.6000   42.3440 C   0  0  0  0  0  0  0  0  0  0  0  0
    8.7110   46.7620   43.0950 C   0  0  0  0  0  0  0  0  0  0  0  0
    9.3540   47.9720   42.8680 C   0  0  0  0  0  0  0  0  0  0  0  0
    9.3040   48.9490   43.8660 C   0  0  0  0  0  0  0  0  0  0  0  0
    8.6310   48.7250   45.0590 C   0  0  0  0  0  0  0  0  0  0  0  0
    7.9790   47.4900   45.2700 C   0  0  0  0  0  0  0  0  0  0  0  0
    8.0350   46.5300   44.2650 C   0  0  0  0  0  0  0  0  0  0  0  0
    7.4780   45.2460   44.2470 N   0  0  0  0  0  0  0  0  0  0  0  0
    6.9480   44.7950   44.9670 H   0  0  0  0  0  0  0  0  0  0  0  0
    7.8180   44.6900   43.0390 C   0  0  0  0  0  0  0  0  0  0  0  0
    8.1820   45.4940   38.7890 C   0  0  0  0  0  0  0  0  0  0  0  0
    7.1400   46.5610   38.8680 O   0  0  0  0  0  0  0  0  0  0  0  0
    6.7770   47.8030   38.7500 C   0  0  0  0  0  0  0  0  0  0  0  0
    6.9540   48.4070   39.9890 C   0  0  0  0  0  0  0  0  0  0  0  0
    6.6830   49.7610   40.2160 C   0  0  0  0  0  0  0  0  0  0  0  0
    6.2320   50.4700   39.1520 C   0  0  0  0  0  0  0  0  0  0  0  0
    6.0370   49.9170   37.9150 N   0  0  0  0  0  0  0  0  0  0  0  0
    6.3100   48.5560   37.7390 C   0  0  0  0  0  0  0  0  0  0  0  0
    6.8870   50.3590   41.5410 C   0  0  0  0  0  0  0  0  0  0  0  0
    7.1720   51.6400   41.7880 C   0  0  0  0  0  0  0  0  0  0  0  0
    7.3680   52.1850   43.1330 C   0  0  0  0  0  0  0  0  0  0  0  0
    8.0760   53.3940   43.2720 C   0  0  0  0  0  0  0  0  0  0  0  0
    8.2730   53.9250   44.5080 C   0  0  0  0  0  0  0  0  0  0  0  0
    7.8040   53.3160   45.6070 N   0  0  0  0  0  0  0  0  0  0  0  0
    7.1240   52.1520   45.4770 C   0  0  0  0  0  0  0  0  0  0  0  0
    6.8930   51.5720   44.2880 C   0  0  0  0  0  0  0  0  0  0  0  0
  1 17  1  6  0  0  0
  1  6  1  0  0  0  0
  2  1  1  0  0  0  0
  2  4  1  0  0  0  0
  3  2  1  0  0  0  0
  5  2  1  0  0  0  0
  6  7  1  0  0  0  0
  7 16  2  0  0  0  0
  7  8  1  0  0  0  0
  8 13  1  0  0  0  0
  9  8  2  0  0  0  0
  9 10  1  0  0  0  0
 10 11  2  0  0  0  0
 11 12  1  0  0  0  0
 13 12  2  0  0  0  0
 14 13  1  0  0  0  0
 14 15  1  0  0  0  0
 16 14  1  0  0  0  0
 17 18  1  0  0  0  0
 19 18  1  0  0  0  0
 19 20  2  0  0  0  0
 20 21  1  0  0  0  0
 21 25  1  0  0  0  0
 22 21  2  0  0  0  0
 23 22  1  0  0  0  0
 24 23  2  0  0  0  0
 24 19  1  0  0  0  0
 25 26  2  0  0  0  0
 26 27  1  0  0  0  0
 27 28  2  0  0  0  0
 27 32  1  0  0  0  0
 28 29  1  0  0  0  0
 29 30  2  0  0  0  0
 31 30  1  0  0  0  0
 32 31  2  0  0  0  0
M  END
>  <minimizedAffinity>
-8.64073277

$$$$

 OpenBabel12271915043D

 32 35  0  0  1  0  0  0  0  0999 V2000
    6.7930   50.8310   39.1390 C   0  0  1  0  0  0  0  0  0  0  0  0
    5.9820   51.8590   38.4720 N   0  0  0  0  0  0  0  0  0  0  0  0
    6.1640   51.8100   37.4770 H   0  0  0  0  0  0  0  0  0  0  0  0
    6.1950   52.8200   38.7940 H   0  0  0  0  0  0  0  0  0  0  0  0
    4.9740   51.6270   38.6160 H   0  0  0  0  0  0  0  0  0  0  0  0
    6.5570   50.7610   40.6370 C   0  0  0  0  0  0  0  0  0  0  0  0
    7.1000   51.9380   41.3370 C   0  0  0  0  0  0  0  0  0  0  0  0
    7.2450   52.0410   42.7160 C   0  0  0  0  0  0  0  0  0  0  0  0
    6.9570   51.1850   43.7710 C   0  0  0  0  0  0  0  0  0  0  0  0
    7.2240   51.6210   45.0730 C   0  0  0  0  0  0  0  0  0  0  0  0
    7.7630   52.8760   45.3150 C   0  0  0  0  0  0  0  0  0  0  0  0
    8.0530   53.7320   44.2280 C   0  0  0  0  0  0  0  0  0  0  0  0
    7.7850   53.2820   42.9400 C   0  0  0  0  0  0  0  0  0  0  0  0
    7.9800   53.9430   41.7220 N   0  0  0  0  0  0  0  0  0  0  0  0
    8.3400   54.8650   41.5730 H   0  0  0  0  0  0  0  0  0  0  0  0
    7.5550   53.0840   40.7390 C   0  0  0  0  0  0  0  0  0  0  0  0
    6.3120   49.4610   38.6230 C   0  0  0  0  0  0  0  0  0  0  0  0
    7.4180   48.4600   38.7230 O   0  0  0  0  0  0  0  0  0  0  0  0
    7.8830   47.3230   39.1450 C   0  0  0  0  0  0  0  0  0  0  0  0
    7.9460   47.3870   40.5320 C   0  0  0  0  0  0  0  0  0  0  0  0
    8.3820   46.3170   41.3200 C   0  0  0  0  0  0  0  0  0  0  0  0
    8.7460   45.1920   40.6560 C   0  0  0  0  0  0  0  0  0  0  0  0
    8.7060   45.0840   39.2910 N   0  0  0  0  0  0  0  0  0  0  0  0
    8.2750   46.1850   38.5450 C   0  0  0  0  0  0  0  0  0  0  0  0
    8.4300   46.4270   42.7820 C   0  0  0  0  0  0  0  0  0  0  0  0
    7.5480   47.0730   43.5500 C   0  0  0  0  0  0  0  0  0  0  0  0
    7.6460   47.1540   45.0090 C   0  0  0  0  0  0  0  0  0  0  0  0
    8.9230   47.2700   45.5920 C   0  0  0  0  0  0  0  0  0  0  0  0
    9.0450   47.3480   46.9440 C   0  0  0  0  0  0  0  0  0  0  0  0
    7.9680   47.3180   47.7400 N   0  0  0  0  0  0  0  0  0  0  0  0
    6.7380   47.2050   47.1830 C   0  0  0  0  0  0  0  0  0  0  0  0
    6.5440   47.1230   45.8570 C   0  0  0  0  0  0  0  0  0  0  0  0
  1 17  1  6  0  0  0
  1  6  1  0  0  0  0
  2  5  1  0  0  0  0
  2  4  1  0  0  0  0
  2  1  1  0  0  0  0
  3  2  1  0  0  0  0
  6  7  1  0  0  0  0
  7  8  1  0  0  0  0
  8 13  2  0  0  0  0
  8  9  1  0  0  0  0
  9 10  2  0  0  0  0
 10 11  1  0  0  0  0
 12 11  2  0  0  0  0
 13 12  1  0  0  0  0
 14 13  1  0  0  0  0
 15 14  1  0  0  0  0
 16  7  2  0  0  0  0
 16 14  1  0  0  0  0
 17 18  1  0  0  0  0
 18 19  1  0  0  0  0
 19 20  1  0  0  0  0
 20 21  2  0  0  0  0
 21 25  1  0  0  0  0
 22 21  1  0  0  0  0
 23 22  2  0  0  0  0
 24 19  2  0  0  0  0
 24 23  1  0  0  0  0
 25 26  2  0  0  0  0
 26 27  1  0  0  0  0
 27 28  2  0  0  0  0
 27 32  1  0  0  0  0
 28 29  1  0  0  0  0
 29 30  2  0  0  0  0
 31 30  1  0  0  0  0
 32 31  2  0  0  0  0
M  END
>  <minimizedAffinity>
-8.63161945

$$$$

 OpenBabel12271915043D

 32 35  0  0  1  0  0  0  0  0999 V2000
    9.0290   44.1990   41.3750 C   0  0  1  0  0  0  0  0  0  0  0  0
    8.9290   42.9600   42.1600 N   0  0  0  0  0  0  0  0  0  0  0  0
    9.8550   42.5610   42.2400 H   0  0  0  0  0  0  0  0  0  0  0  0
    8.3060   42.2530   41.7280 H   0  0  0  0  0  0  0  0  0  0  0  0
    8.6100   43.2060   43.1230 H   0  0  0  0  0  0  0  0  0  0  0  0
    7.7050   44.9300   41.2400 C   0  0  0  0  0  0  0  0  0  0  0  0
    7.7430   45.9460   40.1730 C   0  0  0  0  0  0  0  0  0  0  0  0
    7.1600   47.2060   40.2600 C   0  0  0  0  0  0  0  0  0  0  0  0
    6.4300   47.8520   41.2490 C   0  0  0  0  0  0  0  0  0  0  0  0
    5.9710   49.1490   40.9960 C   0  0  0  0  0  0  0  0  0  0  0  0
    6.2330   49.7820   39.7890 C   0  0  0  0  0  0  0  0  0  0  0  0
    6.9800   49.1100   38.7970 C   0  0  0  0  0  0  0  0  0  0  0  0
    7.4330   47.8220   39.0650 C   0  0  0  0  0  0  0  0  0  0  0  0
    8.1780   46.9660   38.2470 N   0  0  0  0  0  0  0  0  0  0  0  0
    8.5050   47.1350   37.3160 H   0  0  0  0  0  0  0  0  0  0  0  0
    8.3660   45.8090   38.9610 C   0  0  0  0  0  0  0  0  0  0  0  0
    9.9130   45.1770   42.1740 C   0  0  0  0  0  0  0  0  0  0  0  0
    9.5430   45.1350   43.6210 O   0  0  0  0  0  0  0  0  0  0  0  0
    9.2390   45.7360   44.7320 C   0  0  0  0  0  0  0  0  0  0  0  0
    8.7100   46.9770   44.4020 C   0  0  0  0  0  0  0  0  0  0  0  0
    8.2500   47.8840   45.3640 C   0  0  0  0  0  0  0  0  0  0  0  0
    8.3460   47.4870   46.6570 C   0  0  0  0  0  0  0  0  0  0  0  0
    8.8650   46.2750   47.0300 N   0  0  0  0  0  0  0  0  0  0  0  0
    9.3230   45.4080   46.0340 C   0  0  0  0  0  0  0  0  0  0  0  0
    7.6970   49.1840   44.9710 C   0  0  0  0  0  0  0  0  0  0  0  0
    8.1370   49.9560   43.9740 C   0  0  0  0  0  0  0  0  0  0  0  0
    7.5470   51.2500   43.6260 C   0  0  0  0  0  0  0  0  0  0  0  0
    7.8280   51.7980   42.3590 C   0  0  0  0  0  0  0  0  0  0  0  0
    7.2940   52.9980   42.0070 C   0  0  0  0  0  0  0  0  0  0  0  0
    6.4980   53.6760   42.8470 N   0  0  0  0  0  0  0  0  0  0  0  0
    6.2270   53.1520   44.0670 C   0  0  0  0  0  0  0  0  0  0  0  0
    6.7200   51.9730   44.4800 C   0  0  0  0  0  0  0  0  0  0  0  0
  1  6  1  1  0  0  0
  1  2  1  0  0  0  0
  1 17  1  0  0  0  0
  2  3  1  0  0  0  0
  2  5  1  0  0  0  0
  4  2  1  0  0  0  0
  7  8  1  0  0  0  0
  7  6  1  0  0  0  0
  8  9  2  0  0  0  0
 10  9  1  0  0  0  0
 11 10  2  0  0  0  0
 12 13  2  0  0  0  0
 12 11  1  0  0  0  0
 13  8  1  0  0  0  0
 14 16  1  0  0  0  0
 14 13  1  0  0  0  0
 15 14  1  0  0  0  0
 16  7  2  0  0  0  0
 17 18  1  0  0  0  0
 18 19  1  0  0  0  0
 19 24  1  0  0  0  0
 20 19  2  0  0  0  0
 20 21  1  0  0  0  0
 21 22  2  0  0  0  0
 22 23  1  0  0  0  0
 24 23  2  0  0  0  0
 25 21  1  0  0  0  0
 26 25  2  0  0  0  0
 27 26  1  0  0  0  0
 27 32  2  0  0  0  0
 28 27  1  0  0  0  0
 29 28  2  0  0  0  0
 29 30  1  0  0  0  0
 30 31  2  0  0  0  0
 31 32  1  0  0  0  0
M  END
>  <minimizedAffinity>
-8.37947273

$$$$

 OpenBabel12271915043D

 32 35  0  0  1  0  0  0  0  0999 V2000
    6.7080   49.6010   38.7850 C   0  0  1  0  0  0  0  0  0  0  0  0
    5.9680   50.0210   37.5870 N   0  0  0  0  0  0  0  0  0  0  0  0
    6.4180   49.6120   36.7780 H   0  0  0  0  0  0  0  0  0  0  0  0
    5.9450   51.0490   37.4610 H   0  0  0  0  0  0  0  0  0  0  0  0
    5.0040   49.6260   37.6400 H   0  0  0  0  0  0  0  0  0  0  0  0
    6.0870   50.1000   40.0780 C   0  0  0  0  0  0  0  0  0  0  0  0
    6.5960   51.4300   40.4570 C   0  0  0  0  0  0  0  0  0  0  0  0
    7.0040   51.7850   41.7380 C   0  0  0  0  0  0  0  0  0  0  0  0
    7.0570   51.1010   42.9450 C   0  0  0  0  0  0  0  0  0  0  0  0
    7.5220   51.7810   44.0750 C   0  0  0  0  0  0  0  0  0  0  0  0
    7.9230   53.1080   44.0010 C   0  0  0  0  0  0  0  0  0  0  0  0
    7.8650   53.7860   42.7640 C   0  0  0  0  0  0  0  0  0  0  0  0
    7.4040   53.0940   41.6490 C   0  0  0  0  0  0  0  0  0  0  0  0
    7.2540   53.5500   40.3340 N   0  0  0  0  0  0  0  0  0  0  0  0
    7.4470   54.4630   39.9730 H   0  0  0  0  0  0  0  0  0  0  0  0
    6.7590   52.4940   39.6090 C   0  0  0  0  0  0  0  0  0  0  0  0
    6.5870   48.0670   38.8840 C   0  0  0  0  0  0  0  0  0  0  0  0
    7.6840   47.5220   39.7400 O   0  0  0  0  0  0  0  0  0  0  0  0
    8.2270   46.5450   40.4020 C   0  0  0  0  0  0  0  0  0  0  0  0
    8.3100   46.9380   41.7320 C   0  0  0  0  0  0  0  0  0  0  0  0
    8.8250   46.1100   42.7350 C   0  0  0  0  0  0  0  0  0  0  0  0
    9.2480   44.8830   42.3420 C   0  0  0  0  0  0  0  0  0  0  0  0
    9.1920   44.4540   41.0430 N   0  0  0  0  0  0  0  0  0  0  0  0
    8.6790   45.3220   40.0730 C   0  0  0  0  0  0  0  0  0  0  0  0
    8.8920   46.5650   44.1280 C   0  0  0  0  0  0  0  0  0  0  0  0
    9.3740   45.8670   45.1600 C   0  0  0  0  0  0  0  0  0  0  0  0
    9.4140   46.3700   46.5340 C   0  0  0  0  0  0  0  0  0  0  0  0
   10.6570   46.7530   47.0740 C   0  0  0  0  0  0  0  0  0  0  0  0
   10.7260   47.2250   48.3480 C   0  0  0  0  0  0  0  0  0  0  0  0
    9.6260   47.3340   49.1060 N   0  0  0  0  0  0  0  0  0  0  0  0
    8.4290   46.9640   48.5910 C   0  0  0  0  0  0  0  0  0  0  0  0
    8.2880   46.4900   47.3420 C   0  0  0  0  0  0  0  0  0  0  0  0
  1 17  1  1  0  0  0
  1  6  1  0  0  0  0
  2  5  1  0  0  0  0
  2  1  1  0  0  0  0
  3  2  1  0  0  0  0
  4  2  1  0  0  0  0
  6  7  1  0  0  0  0
  7  8  1  0  0  0  0
  8  9  1  0  0  0  0
  9 10  2  0  0  0  0
 11 10  1  0  0  0  0
 12 11  2  0  0  0  0
 13  8  2  0  0  0  0
 13 12  1  0  0  0  0
 14 13  1  0  0  0  0
 15 14  1  0  0  0  0
 16 14  1  0  0  0  0
 16  7  2  0  0  0  0
 17 18  1  0  0  0  0
 18 19  1  0  0  0  0
 19 20  1  0  0  0  0
 20 21  2  0  0  0  0
 21 25  1  0  0  0  0
 22 21  1  0  0  0  0
 23 22  2  0  0  0  0
 24 19  2  0  0  0  0
 24 23  1  0  0  0  0
 25 26  2  0  0  0  0
 26 27  1  0  0  0  0
 27 28  2  0  0  0  0
 27 32  1  0  0  0  0
 28 29  1  0  0  0  0
 29 30  2  0  0  0  0
 31 30  1  0  0  0  0
 32 31  2  0  0  0  0
M  END
>  <minimizedAffinity>
-8.3768425

$$$$

 OpenBabel12271915043D

 32 35  0  0  1  0  0  0  0  0999 V2000
    8.4640   48.1600   44.0430 C   0  0  1  0  0  0  0  0  0  0  0  0
    9.2730   47.3770   43.0990 N   0  0  0  0  0  0  0  0  0  0  0  0
    9.8940   46.7810   43.6320 H   0  0  0  0  0  0  0  0  0  0  0  0
    9.8490   47.9660   42.4690 H   0  0  0  0  0  0  0  0  0  0  0  0
    8.6350   46.7550   42.5550 H   0  0  0  0  0  0  0  0  0  0  0  0
    7.4410   49.0500   43.3600 C   0  0  0  0  0  0  0  0  0  0  0  0
    7.5820   50.4610   43.7610 C   0  0  0  0  0  0  0  0  0  0  0  0
    7.5520   51.5390   42.8840 C   0  0  0  0  0  0  0  0  0  0  0  0
    7.4060   51.6440   41.5070 C   0  0  0  0  0  0  0  0  0  0  0  0
    7.4340   52.9180   40.9310 C   0  0  0  0  0  0  0  0  0  0  0  0
    7.6030   54.0550   41.7070 C   0  0  0  0  0  0  0  0  0  0  0  0
    7.7460   53.9290   43.1070 C   0  0  0  0  0  0  0  0  0  0  0  0
    7.7120   52.6550   43.6650 C   0  0  0  0  0  0  0  0  0  0  0  0
    7.8350   52.2830   45.0090 N   0  0  0  0  0  0  0  0  0  0  0  0
    7.9810   52.8770   45.8010 H   0  0  0  0  0  0  0  0  0  0  0  0
    7.7420   50.9140   45.0440 C   0  0  0  0  0  0  0  0  0  0  0  0
    7.6080   47.1630   44.8490 C   0  0  0  0  0  0  0  0  0  0  0  0
    8.3270   46.7650   46.0980 O   0  0  0  0  0  0  0  0  0  0  0  0
    9.2230   46.9900   47.0110 C   0  0  0  0  0  0  0  0  0  0  0  0
    8.5630   47.0700   48.2310 C   0  0  0  0  0  0  0  0  0  0  0  0
    9.2330   47.2810   49.4410 C   0  0  0  0  0  0  0  0  0  0  0  0
   10.5810   47.4040   49.3670 C   0  0  0  0  0  0  0  0  0  0  0  0
   11.2740   47.3370   48.1880 N   0  0  0  0  0  0  0  0  0  0  0  0
   10.5590   47.1370   47.0020 C   0  0  0  0  0  0  0  0  0  0  0  0
    8.4960   47.3570   50.7080 C   0  0  0  0  0  0  0  0  0  0  0  0
    7.7680   48.3940   51.1310 C   0  0  0  0  0  0  0  0  0  0  0  0
    7.0530   48.4180   52.4090 C   0  0  0  0  0  0  0  0  0  0  0  0
    7.6380   47.7780   53.5180 C   0  0  0  0  0  0  0  0  0  0  0  0
    6.9990   47.7840   54.7180 C   0  0  0  0  0  0  0  0  0  0  0  0
    5.8130   48.3920   54.8690 N   0  0  0  0  0  0  0  0  0  0  0  0
    5.2470   49.0070   53.8030 C   0  0  0  0  0  0  0  0  0  0  0  0
    5.8220   49.0400   52.5900 C   0  0  0  0  0  0  0  0  0  0  0  0
  1  6  1  6  0  0  0
  1 17  1  0  0  0  0
  2  3  1  0  0  0  0
  2  1  1  0  0  0  0
  4  2  1  0  0  0  0
  5  2  1  0  0  0  0
  6  7  1  0  0  0  0
  7 16  2  0  0  0  0
  8 13  2  0  0  0  0
  8  7  1  0  0  0  0
  9  8  1  0  0  0  0
 10  9  2  0  0  0  0
 10 11  1  0  0  0  0
 11 12  2  0  0  0  0
 12 13  1  0  0  0  0
 13 14  1  0  0  0  0
 14 16  1  0  0  0  0
 14 15  1  0  0  0  0
 17 18  1  0  0  0  0
 18 19  1  0  0  0  0
 19 20  1  0  0  0  0
 20 21  2  0  0  0  0
 21 25  1  0  0  0  0
 22 21  1  0  0  0  0
 23 22  2  0  0  0  0
 24 19  2  0  0  0  0
 24 23  1  0  0  0  0
 25 26  2  0  0  0  0
 26 27  1  0  0  0  0
 27 32  2  0  0  0  0
 27 28  1  0  0  0  0
 28 29  2  0  0  0  0
 29 30  1  0  0  0  0
 31 30  2  0  0  0  0
 32 31  1  0  0  0  0
M  END
>  <minimizedAffinity>
-8.33075333

$$$$

 OpenBabel12271915043D

 32 35  0  0  1  0  0  0  0  0999 V2000
    7.1870   47.2790   45.1700 C   0  0  1  0  0  0  0  0  0  0  0  0
    6.1380   46.9570   46.1480 N   0  0  0  0  0  0  0  0  0  0  0  0
    5.8550   45.9970   46.0030 H   0  0  0  0  0  0  0  0  0  0  0  0
    5.3000   47.5600   46.0610 H   0  0  0  0  0  0  0  0  0  0  0  0
    6.5510   47.0200   47.1050 H   0  0  0  0  0  0  0  0  0  0  0  0
    7.7440   48.6830   45.3300 C   0  0  0  0  0  0  0  0  0  0  0  0
    7.5340   49.5010   44.1230 C   0  0  0  0  0  0  0  0  0  0  0  0
    7.5650   50.8910   44.0940 C   0  0  0  0  0  0  0  0  0  0  0  0
    7.7710   51.8600   45.0670 C   0  0  0  0  0  0  0  0  0  0  0  0
    7.7240   53.2050   44.6860 C   0  0  0  0  0  0  0  0  0  0  0  0
    7.4780   53.5720   43.3710 C   0  0  0  0  0  0  0  0  0  0  0  0
    7.2750   52.5720   42.3940 C   0  0  0  0  0  0  0  0  0  0  0  0
    7.3290   51.2390   42.7880 C   0  0  0  0  0  0  0  0  0  0  0  0
    7.1570   50.0870   42.0120 N   0  0  0  0  0  0  0  0  0  0  0  0
    6.9530   50.0290   41.0330 H   0  0  0  0  0  0  0  0  0  0  0  0
    7.2970   49.0190   42.8620 C   0  0  0  0  0  0  0  0  0  0  0  0
    8.3910   46.3660   45.4710 C   0  0  0  0  0  0  0  0  0  0  0  0
    8.5970   46.2610   46.9470 O   0  0  0  0  0  0  0  0  0  0  0  0
    9.2250   46.6030   48.0320 C   0  0  0  0  0  0  0  0  0  0  0  0
    8.2820   47.1170   48.9140 C   0  0  0  0  0  0  0  0  0  0  0  0
    8.6110   47.5620   50.1990 C   0  0  0  0  0  0  0  0  0  0  0  0
    9.9170   47.4660   50.5510 C   0  0  0  0  0  0  0  0  0  0  0  0
   10.8820   46.9720   49.7140 N   0  0  0  0  0  0  0  0  0  0  0  0
   10.5070   46.5510   48.4350 C   0  0  0  0  0  0  0  0  0  0  0  0
    7.5830   48.0960   51.0990 C   0  0  0  0  0  0  0  0  0  0  0  0
    7.8010   48.8400   52.1870 C   0  0  0  0  0  0  0  0  0  0  0  0
    6.7350   49.3450   53.0540 C   0  0  0  0  0  0  0  0  0  0  0  0
    7.0270   50.4090   53.9290 C   0  0  0  0  0  0  0  0  0  0  0  0
    6.0570   50.9000   54.7460 C   0  0  0  0  0  0  0  0  0  0  0  0
    4.8170   50.3900   54.7340 N   0  0  0  0  0  0  0  0  0  0  0  0
    4.5330   49.3660   53.8940 C   0  0  0  0  0  0  0  0  0  0  0  0
    5.4420   48.8320   53.0620 C   0  0  0  0  0  0  0  0  0  0  0  0
  1  6  1  1  0  0  0
  1 17  1  0  0  0  0
  1  2  1  0  0  0  0
  2  5  1  0  0  0  0
  3  2  1  0  0  0  0
  4  2  1  0  0  0  0
  7  6  1  0  0  0  0
  8  7  1  0  0  0  0
  8  9  2  0  0  0  0
 10  9  1  0  0  0  0
 11 10  2  0  0  0  0
 12 13  2  0  0  0  0
 12 11  1  0  0  0  0
 13  8  1  0  0  0  0
 14 13  1  0  0  0  0
 14 16  1  0  0  0  0
 15 14  1  0  0  0  0
 16  7  2  0  0  0  0
 17 18  1  0  0  0  0
 18 19  1  0  0  0  0
 19 24  2  0  0  0  0
 19 20  1  0  0  0  0
 20 21  2  0  0  0  0
 21 22  1  0  0  0  0
 21 25  1  0  0  0  0
 23 22  2  0  0  0  0
 24 23  1  0  0  0  0
 25 26  2  0  0  0  0
 26 27  1  0  0  0  0
 27 32  2  0  0  0  0
 27 28  1  0  0  0  0
 28 29  2  0  0  0  0
 30 29  1  0  0  0  0
 31 30  2  0  0  0  0
 32 31  1  0  0  0  0
M  END
>  <minimizedAffinity>
-8.25928497

$$$$

 OpenBabel12271915043D

 32 35  0  0  1  0  0  0  0  0999 V2000
    6.9220   50.6960   39.3580 C   0  0  1  0  0  0  0  0  0  0  0  0
    6.3940   51.8450   38.6090 N   0  0  0  0  0  0  0  0  0  0  0  0
    7.0250   52.0400   37.8430 H   0  0  0  0  0  0  0  0  0  0  0  0
    6.3060   52.7020   39.1850 H   0  0  0  0  0  0  0  0  0  0  0  0
    5.4750   51.5730   38.1950 H   0  0  0  0  0  0  0  0  0  0  0  0
    6.0230   50.2630   40.5020 C   0  0  0  0  0  0  0  0  0  0  0  0
    6.6950   50.3800   41.8080 C   0  0  0  0  0  0  0  0  0  0  0  0
    7.0620   51.5820   42.4030 C   0  0  0  0  0  0  0  0  0  0  0  0
    6.9460   52.9110   42.0180 C   0  0  0  0  0  0  0  0  0  0  0  0
    7.4460   53.8970   42.8740 C   0  0  0  0  0  0  0  0  0  0  0  0
    8.0460   53.5660   44.0800 C   0  0  0  0  0  0  0  0  0  0  0  0
    8.1530   52.2080   44.4560 C   0  0  0  0  0  0  0  0  0  0  0  0
    7.6470   51.2400   43.5960 C   0  0  0  0  0  0  0  0  0  0  0  0
    7.6410   49.8480   43.7480 N   0  0  0  0  0  0  0  0  0  0  0  0
    8.0130   49.3100   44.5050 H   0  0  0  0  0  0  0  0  0  0  0  0
    7.0360   49.3360   42.6270 C   0  0  0  0  0  0  0  0  0  0  0  0
    6.9180   49.4860   38.4040 C   0  0  0  0  0  0  0  0  0  0  0  0
    7.1900   48.2310   39.1690 O   0  0  0  0  0  0  0  0  0  0  0  0
    7.7220   47.0490   39.2570 C   0  0  0  0  0  0  0  0  0  0  0  0
    8.1030   46.8620   40.5790 C   0  0  0  0  0  0  0  0  0  0  0  0
    8.6910   45.6770   41.0370 C   0  0  0  0  0  0  0  0  0  0  0  0
    8.8750   44.7020   40.1130 C   0  0  0  0  0  0  0  0  0  0  0  0
    8.5190   44.8430   38.7970 N   0  0  0  0  0  0  0  0  0  0  0  0
    7.9460   46.0500   38.3850 C   0  0  0  0  0  0  0  0  0  0  0  0
    9.0770   45.5210   42.4440 C   0  0  0  0  0  0  0  0  0  0  0  0
    8.8330   46.3920   43.4260 C   0  0  0  0  0  0  0  0  0  0  0  0
    9.2440   46.1860   44.8160 C   0  0  0  0  0  0  0  0  0  0  0  0
    9.8190   47.2660   45.5140 C   0  0  0  0  0  0  0  0  0  0  0  0
   10.2100   47.1050   46.8060 C   0  0  0  0  0  0  0  0  0  0  0  0
   10.0570   45.9320   47.4360 N   0  0  0  0  0  0  0  0  0  0  0  0
    9.5060   44.8910   46.7680 C   0  0  0  0  0  0  0  0  0  0  0  0
    9.0980   44.9790   45.4910 C   0  0  0  0  0  0  0  0  0  0  0  0
  1 17  1  6  0  0  0
  1  6  1  0  0  0  0
  2  4  1  0  0  0  0
  2  1  1  0  0  0  0
  3  2  1  0  0  0  0
  5  2  1  0  0  0  0
  6  7  1  0  0  0  0
  7  8  1  0  0  0  0
  7 16  2  0  0  0  0
  8 13  1  0  0  0  0
  9  8  2  0  0  0  0
  9 10  1  0  0  0  0
 10 11  2  0  0  0  0
 11 12  1  0  0  0  0
 13 14  1  0  0  0  0
 13 12  2  0  0  0  0
 14 15  1  0  0  0  0
 16 14  1  0  0  0  0
 17 18  1  0  0  0  0
 18 19  1  0  0  0  0
 19 20  2  0  0  0  0
 20 21  1  0  0  0  0
 21 25  1  0  0  0  0
 22 21  2  0  0  0  0
 23 22  1  0  0  0  0
 24 23  2  0  0  0  0
 24 19  1  0  0  0  0
 25 26  2  0  0  0  0
 26 27  1  0  0  0  0
 27 32  2  0  0  0  0
 27 28  1  0  0  0  0
 28 29  2  0  0  0  0
 29 30  1  0  0  0  0
 31 30  2  0  0  0  0
 32 31  1  0  0  0  0
M  END
>  <minimizedAffinity>
-8.25416183

$$$$

 OpenBabel12271915043D

 32 35  0  0  1  0  0  0  0  0999 V2000
    7.0590   52.2620   45.0340 C   0  0  1  0  0  0  0  0  0  0  0  0
    7.4680   52.9960   46.2400 N   0  0  0  0  0  0  0  0  0  0  0  0
    6.6840   53.0180   46.8780 H   0  0  0  0  0  0  0  0  0  0  0  0
    7.7560   53.9720   46.0450 H   0  0  0  0  0  0  0  0  0  0  0  0
    8.2340   52.4620   46.7050 H   0  0  0  0  0  0  0  0  0  0  0  0
    8.1780   52.1040   44.0210 C   0  0  0  0  0  0  0  0  0  0  0  0
    7.8080   52.6430   42.7010 C   0  0  0  0  0  0  0  0  0  0  0  0
    7.2350   51.9000   41.6750 C   0  0  0  0  0  0  0  0  0  0  0  0
    6.8690   50.5660   41.5530 C   0  0  0  0  0  0  0  0  0  0  0  0
    6.3140   50.1360   40.3440 C   0  0  0  0  0  0  0  0  0  0  0  0
    6.1290   51.0140   39.2850 C   0  0  0  0  0  0  0  0  0  0  0  0
    6.5030   52.3680   39.4280 C   0  0  0  0  0  0  0  0  0  0  0  0
    7.0510   52.7810   40.6390 C   0  0  0  0  0  0  0  0  0  0  0  0
    7.4960   54.0540   41.0110 N   0  0  0  0  0  0  0  0  0  0  0  0
    7.5050   54.8890   40.4590 H   0  0  0  0  0  0  0  0  0  0  0  0
    7.9550   53.9460   42.3000 C   0  0  0  0  0  0  0  0  0  0  0  0
    6.7400   50.8160   45.4640 C   0  0  0  0  0  0  0  0  0  0  0  0
    7.8110   49.8920   44.9820 O   0  0  0  0  0  0  0  0  0  0  0  0
    8.2690   48.6930   44.7810 C   0  0  0  0  0  0  0  0  0  0  0  0
    7.8380   48.2880   43.5240 C   0  0  0  0  0  0  0  0  0  0  0  0
    8.1730   47.0470   42.9720 C   0  0  0  0  0  0  0  0  0  0  0  0
    8.9530   46.2420   43.7350 C   0  0  0  0  0  0  0  0  0  0  0  0
    9.3970   46.5950   44.9820 N   0  0  0  0  0  0  0  0  0  0  0  0
    9.0260   47.8420   45.4960 C   0  0  0  0  0  0  0  0  0  0  0  0
    7.6970   46.6610   41.6390 C   0  0  0  0  0  0  0  0  0  0  0  0
    8.3820   46.7760   40.4980 C   0  0  0  0  0  0  0  0  0  0  0  0
    7.8570   46.3760   39.1910 C   0  0  0  0  0  0  0  0  0  0  0  0
    7.1100   47.3130   38.4510 C   0  0  0  0  0  0  0  0  0  0  0  0
    6.6100   46.9710   37.2340 C   0  0  0  0  0  0  0  0  0  0  0  0
    6.8150   45.7510   36.7180 N   0  0  0  0  0  0  0  0  0  0  0  0
    7.5320   44.8460   37.4280 C   0  0  0  0  0  0  0  0  0  0  0  0
    8.0540   45.1160   38.6350 C   0  0  0  0  0  0  0  0  0  0  0  0
  1  6  1  6  0  0  0
  1 17  1  0  0  0  0
  1  2  1  0  0  0  0
  2  5  1  0  0  0  0
  2  3  1  0  0  0  0
  4  2  1  0  0  0  0
  7  6  1  0  0  0  0
  8  7  1  0  0  0  0
  9  8  1  0  0  0  0
 10  9  2  0  0  0  0
 11 12  2  0  0  0  0
 11 10  1  0  0  0  0
 12 13  1  0  0  0  0
 13 14  1  0  0  0  0
 13  8  2  0  0  0  0
 14 16  1  0  0  0  0
 15 14  1  0  0  0  0
 16  7  2  0  0  0  0
 18 17  1  0  0  0  0
 19 18  1  0  0  0  0
 19 24  2  0  0  0  0
 20 19  1  0  0  0  0
 21 20  2  0  0  0  0
 21 22  1  0  0  0  0
 22 23  2  0  0  0  0
 23 24  1  0  0  0  0
 25 21  1  0  0  0  0
 26 25  2  0  0  0  0
 27 26  1  0  0  0  0
 28 27  2  0  0  0  0
 29 28  1  0  0  0  0
 30 29  2  0  0  0  0
 30 31  1  0  0  0  0
 31 32  2  0  0  0  0
 32 27  1  0  0  0  0
M  END
>  <minimizedAffinity>
-7.97561407

$$$$

 OpenBabel12271915043D

 32 35  0  0  1  0  0  0  0  0999 V2000
    8.4890   45.0480   38.3660 C   0  0  1  0  0  0  0  0  0  0  0  0
    8.5340   44.1830   37.1790 N   0  0  0  0  0  0  0  0  0  0  0  0
    9.4670   43.8020   37.1000 H   0  0  0  0  0  0  0  0  0  0  0  0
    8.3130   44.6850   36.3000 H   0  0  0  0  0  0  0  0  0  0  0  0
    7.8820   43.3820   37.3300 H   0  0  0  0  0  0  0  0  0  0  0  0
    7.1120   45.6310   38.6300 C   0  0  0  0  0  0  0  0  0  0  0  0
    7.0140   47.0350   38.1940 C   0  0  0  0  0  0  0  0  0  0  0  0
    6.6730   48.0990   39.0210 C   0  0  0  0  0  0  0  0  0  0  0  0
    6.3410   48.1920   40.3660 C   0  0  0  0  0  0  0  0  0  0  0  0
    6.0310   49.4510   40.8900 C   0  0  0  0  0  0  0  0  0  0  0  0
    6.0520   50.5860   40.0920 C   0  0  0  0  0  0  0  0  0  0  0  0
    6.3960   50.4730   38.7270 C   0  0  0  0  0  0  0  0  0  0  0  0
    6.7050   49.2140   38.2230 C   0  0  0  0  0  0  0  0  0  0  0  0
    7.0660   48.8550   36.9190 N   0  0  0  0  0  0  0  0  0  0  0  0
    7.1530   49.4510   36.1190 H   0  0  0  0  0  0  0  0  0  0  0  0
    7.2620   47.4970   36.9270 C   0  0  0  0  0  0  0  0  0  0  0  0
    8.7540   44.1550   39.5940 C   0  0  0  0  0  0  0  0  0  0  0  0
    9.2300   44.9890   40.7390 O   0  0  0  0  0  0  0  0  0  0  0  0
    9.2400   45.2750   42.0070 C   0  0  0  0  0  0  0  0  0  0  0  0
    9.0580   46.6470   42.1260 C   0  0  0  0  0  0  0  0  0  0  0  0
    8.9930   47.2970   43.3630 C   0  0  0  0  0  0  0  0  0  0  0  0
    9.1160   46.5120   44.4610 C   0  0  0  0  0  0  0  0  0  0  0  0
    9.3020   45.1560   44.3930 N   0  0  0  0  0  0  0  0  0  0  0  0
    9.3730   44.5530   43.1330 C   0  0  0  0  0  0  0  0  0  0  0  0
    8.7970   48.7490   43.4420 C   0  0  0  0  0  0  0  0  0  0  0  0
    7.8240   49.3750   44.1090 C   0  0  0  0  0  0  0  0  0  0  0  0
    7.6740   50.8310   44.1530 C   0  0  0  0  0  0  0  0  0  0  0  0
    7.8670   51.5630   42.9650 C   0  0  0  0  0  0  0  0  0  0  0  0
    7.7330   52.9160   42.9750 C   0  0  0  0  0  0  0  0  0  0  0  0
    7.4190   53.5740   44.1000 N   0  0  0  0  0  0  0  0  0  0  0  0
    7.2340   52.8730   45.2440 C   0  0  0  0  0  0  0  0  0  0  0  0
    7.3500   51.5360   45.3070 C   0  0  0  0  0  0  0  0  0  0  0  0
  1  6  1  1  0  0  0
  1 17  1  0  0  0  0
  2  5  1  0  0  0  0
  2  1  1  0  0  0  0
  3  2  1  0  0  0  0
  4  2  1  0  0  0  0
  7  6  1  0  0  0  0
  7  8  1  0  0  0  0
  8  9  2  0  0  0  0
  9 10  1  0  0  0  0
 11 10  2  0  0  0  0
 12 11  1  0  0  0  0
 13 12  2  0  0  0  0
 13  8  1  0  0  0  0
 14 16  1  0  0  0  0
 14 13  1  0  0  0  0
 15 14  1  0  0  0  0
 16  7  2  0  0  0  0
 17 18  1  0  0  0  0
 18 19  1  0  0  0  0
 19 20  2  0  0  0  0
 19 24  1  0  0  0  0
 20 21  1  0  0  0  0
 21 25  1  0  0  0  0
 21 22  2  0  0  0  0
 23 22  1  0  0  0  0
 24 23  2  0  0  0  0
 25 26  2  0  0  0  0
 26 27  1  0  0  0  0
 27 32  2  0  0  0  0
 28 29  2  0  0  0  0
 28 27  1  0  0  0  0
 29 30  1  0  0  0  0
 30 31  2  0  0  0  0
 31 32  1  0  0  0  0
M  END
>  <minimizedAffinity>
-7.93944979

$$$$
