
 OpenBabel12271914593D

 24 27  0  0  0  0  0  0  0  0999 V2000
    6.9220   48.8170   42.3950 N   0  0  0  0  0  0  0  0  0  0  0  0
    7.5070   48.7640   43.6460 C   0  0  0  0  0  0  0  0  0  0  0  0
    7.6710   47.6120   44.3480 N   0  0  0  0  0  0  0  0  0  0  0  0
    6.6220   47.1370   45.2650 C   0  0  0  0  0  0  0  0  0  0  0  0
    6.9500   47.4130   46.7500 C   0  0  0  0  0  0  0  0  0  0  0  0
    8.4030   47.6580   46.9820 N   0  0  0  0  0  0  0  0  0  0  0  0
    8.5920   48.6550   46.7630 H   0  0  0  0  0  0  0  0  0  0  0  0
    8.6320   47.5200   47.9630 H   0  0  0  0  0  0  0  0  0  0  0  0
    9.2850   46.8300   46.1070 C   0  0  0  0  0  0  0  0  0  0  0  0
    9.0440   47.1410   44.6150 C   0  0  0  0  0  0  0  0  0  0  0  0
    7.9140   49.9740   43.9770 N   0  0  0  0  0  0  0  0  0  0  0  0
    7.5930   50.8130   42.9520 C   0  0  0  0  0  0  0  0  0  0  0  0
    7.8130   52.1870   42.8000 C   0  0  0  0  0  0  0  0  0  0  0  0
    7.3720   52.8200   41.6300 C   0  0  0  0  0  0  0  0  0  0  0  0
    6.7300   52.0980   40.6360 C   0  0  0  0  0  0  0  0  0  0  0  0
    6.5090   50.7300   40.7930 C   0  0  0  0  0  0  0  0  0  0  0  0
    6.9540   50.1110   41.9530 C   0  0  0  0  0  0  0  0  0  0  0  0
    6.3000   47.7090   41.7010 C   0  0  0  0  0  0  0  0  0  0  0  0
    7.2120   47.0120   40.7250 C   0  0  0  0  0  0  0  0  0  0  0  0
    7.2430   47.3940   39.3820 C   0  0  0  0  0  0  0  0  0  0  0  0
    8.0600   46.7370   38.4660 C   0  0  0  0  0  0  0  0  0  0  0  0
    8.8660   45.6860   38.8830 C   0  0  0  0  0  0  0  0  0  0  0  0
    8.8400   45.2960   40.2160 C   0  0  0  0  0  0  0  0  0  0  0  0
    8.0200   45.9530   41.1240 C   0  0  0  0  0  0  0  0  0  0  0  0
  1  2  1  0  0  0  0
  2 11  2  0  0  0  0
  2  3  1  0  0  0  0
  3 10  1  0  0  0  0
  3  4  1  0  0  0  0
  4  5  1  0  0  0  0
  5  6  1  0  0  0  0
  6  8  1  0  0  0  0
  7  6  1  0  0  0  0
  9  6  1  0  0  0  0
 10  9  1  0  0  0  0
 12 11  2  0  0  0  0
 13 12  1  0  0  0  0
 14 13  1  0  0  0  0
 15 16  1  0  0  0  0
 15 14  2  0  0  0  0
 16 17  2  0  0  0  0
 17  1  1  0  0  0  0
 17 12  1  0  0  0  0
 18  1  1  0  0  0  0
 19 24  1  0  0  0  0
 19 18  1  0  0  0  0
 20 19  2  0  0  0  0
 21 22  2  0  0  0  0
 21 20  1  0  0  0  0
 22 23  1  0  0  0  0
 23 24  2  0  0  0  0
M  END
>  <minimizedAffinity>
-8.53713512

$$$$

 OpenBabel12271914593D

 24 27  0  0  0  0  0  0  0  0999 V2000
    6.8800   49.6070   42.4250 N   0  0  0  0  0  0  0  0  0  0  0  0
    7.5620   49.0290   43.4790 C   0  0  0  0  0  0  0  0  0  0  0  0
    7.6290   47.6870   43.6820 N   0  0  0  0  0  0  0  0  0  0  0  0
    6.6110   47.0010   44.4950 C   0  0  0  0  0  0  0  0  0  0  0  0
    7.1060   46.6610   45.9200 C   0  0  0  0  0  0  0  0  0  0  0  0
    8.5940   46.6630   46.0260 N   0  0  0  0  0  0  0  0  0  0  0  0
    8.8980   47.6460   46.1630 H   0  0  0  0  0  0  0  0  0  0  0  0
    8.8890   46.1420   46.8490 H   0  0  0  0  0  0  0  0  0  0  0  0
    9.2710   46.1490   44.7990 C   0  0  0  0  0  0  0  0  0  0  0  0
    8.9420   47.0240   43.5710 C   0  0  0  0  0  0  0  0  0  0  0  0
    8.1600   49.9790   44.1700 N   0  0  0  0  0  0  0  0  0  0  0  0
    7.8670   51.1700   43.5760 C   0  0  0  0  0  0  0  0  0  0  0  0
    8.2590   52.4720   43.9090 C   0  0  0  0  0  0  0  0  0  0  0  0
    7.8060   53.5390   43.1210 C   0  0  0  0  0  0  0  0  0  0  0  0
    6.9840   53.3120   42.0290 C   0  0  0  0  0  0  0  0  0  0  0  0
    6.5920   52.0140   41.7040 C   0  0  0  0  0  0  0  0  0  0  0  0
    7.0500   50.9620   42.4860 C   0  0  0  0  0  0  0  0  0  0  0  0
    6.0520   48.9080   41.4650 C   0  0  0  0  0  0  0  0  0  0  0  0
    6.7600   48.5750   40.1770 C   0  0  0  0  0  0  0  0  0  0  0  0
    7.4910   47.3920   40.0510 C   0  0  0  0  0  0  0  0  0  0  0  0
    8.1740   47.0900   38.8760 C   0  0  0  0  0  0  0  0  0  0  0  0
    8.1300   47.9680   37.8010 C   0  0  0  0  0  0  0  0  0  0  0  0
    7.4080   49.1500   37.9180 C   0  0  0  0  0  0  0  0  0  0  0  0
    6.7330   49.4470   39.0940 C   0  0  0  0  0  0  0  0  0  0  0  0
  1 17  1  0  0  0  0
  1  2  1  0  0  0  0
  2  3  1  0  0  0  0
  2 11  2  0  0  0  0
  3  4  1  0  0  0  0
  4  5  1  0  0  0  0
  5  6  1  0  0  0  0
  6  7  1  0  0  0  0
  6  8  1  0  0  0  0
  9  6  1  0  0  0  0
 10  3  1  0  0  0  0
 10  9  1  0  0  0  0
 12 13  1  0  0  0  0
 12 11  2  0  0  0  0
 14 13  1  0  0  0  0
 15 14  2  0  0  0  0
 16 15  1  0  0  0  0
 16 17  2  0  0  0  0
 17 12  1  0  0  0  0
 18  1  1  0  0  0  0
 19 18  1  0  0  0  0
 20 19  1  0  0  0  0
 21 20  2  0  0  0  0
 22 23  2  0  0  0  0
 22 21  1  0  0  0  0
 23 24  1  0  0  0  0
 24 19  2  0  0  0  0
M  END
>  <minimizedAffinity>
-8.35136986

$$$$

 OpenBabel12271914593D

 24 27  0  0  0  0  0  0  0  0999 V2000
    8.4930   48.0220   43.8370 N   0  0  0  0  0  0  0  0  0  0  0  0
    8.1460   47.1990   44.8920 C   0  0  0  0  0  0  0  0  0  0  0  0
    8.2380   47.5750   46.1950 N   0  0  0  0  0  0  0  0  0  0  0  0
    9.4780   47.3470   46.9550 C   0  0  0  0  0  0  0  0  0  0  0  0
    9.3870   46.1340   47.9090 C   0  0  0  0  0  0  0  0  0  0  0  0
    7.9780   45.7460   48.2110 N   0  0  0  0  0  0  0  0  0  0  0  0
    7.6430   45.1490   47.4310 H   0  0  0  0  0  0  0  0  0  0  0  0
    7.9420   45.1810   49.0560 H   0  0  0  0  0  0  0  0  0  0  0  0
    7.0560   46.9150   48.3110 C   0  0  0  0  0  0  0  0  0  0  0  0
    6.9950   47.6960   46.9810 C   0  0  0  0  0  0  0  0  0  0  0  0
    7.6700   46.0680   44.4120 N   0  0  0  0  0  0  0  0  0  0  0  0
    7.7100   46.1470   43.0520 C   0  0  0  0  0  0  0  0  0  0  0  0
    7.3130   45.2240   42.0760 C   0  0  0  0  0  0  0  0  0  0  0  0
    7.4680   45.5580   40.7240 C   0  0  0  0  0  0  0  0  0  0  0  0
    8.0040   46.7810   40.3550 C   0  0  0  0  0  0  0  0  0  0  0  0
    8.4010   47.6960   41.3300 C   0  0  0  0  0  0  0  0  0  0  0  0
    8.2390   47.3590   42.6680 C   0  0  0  0  0  0  0  0  0  0  0  0
    9.1050   49.3290   43.9450 C   0  0  0  0  0  0  0  0  0  0  0  0
    8.1160   50.4660   43.9410 C   0  0  0  0  0  0  0  0  0  0  0  0
    7.7260   51.0680   42.7420 C   0  0  0  0  0  0  0  0  0  0  0  0
    6.8370   52.1380   42.7310 C   0  0  0  0  0  0  0  0  0  0  0  0
    6.3160   52.6220   43.9230 C   0  0  0  0  0  0  0  0  0  0  0  0
    6.7010   52.0330   45.1220 C   0  0  0  0  0  0  0  0  0  0  0  0
    7.5920   50.9690   45.1270 C   0  0  0  0  0  0  0  0  0  0  0  0
  1 18  1  0  0  0  0
  1  2  1  0  0  0  0
  2  3  1  0  0  0  0
  3  4  1  0  0  0  0
  3 10  1  0  0  0  0
  4  5  1  0  0  0  0
  5  6  1  0  0  0  0
  6  9  1  0  0  0  0
  6  8  1  0  0  0  0
  7  6  1  0  0  0  0
 10  9  1  0  0  0  0
 11  2  2  0  0  0  0
 12 11  2  0  0  0  0
 13 12  1  0  0  0  0
 14 13  1  0  0  0  0
 15 14  2  0  0  0  0
 15 16  1  0  0  0  0
 16 17  2  0  0  0  0
 17 12  1  0  0  0  0
 17  1  1  0  0  0  0
 19 18  1  0  0  0  0
 19 24  2  0  0  0  0
 20 19  1  0  0  0  0
 21 20  2  0  0  0  0
 21 22  1  0  0  0  0
 22 23  2  0  0  0  0
 23 24  1  0  0  0  0
M  END
>  <minimizedAffinity>
-8.06568909

$$$$

 OpenBabel12271914593D

 24 27  0  0  0  0  0  0  0  0999 V2000
    6.6450   49.3730   40.9810 N   0  0  0  0  0  0  0  0  0  0  0  0
    7.4730   48.5740   41.7460 C   0  0  0  0  0  0  0  0  0  0  0  0
    7.5730   48.6770   43.0980 N   0  0  0  0  0  0  0  0  0  0  0  0
    8.5600   49.5830   43.7090 C   0  0  0  0  0  0  0  0  0  0  0  0
    9.8040   48.8430   44.2490 C   0  0  0  0  0  0  0  0  0  0  0  0
    9.5580   47.3870   44.4670 N   0  0  0  0  0  0  0  0  0  0  0  0
    9.6790   46.9090   43.5540 H   0  0  0  0  0  0  0  0  0  0  0  0
   10.2550   47.0030   45.1000 H   0  0  0  0  0  0  0  0  0  0  0  0
    8.1770   47.0920   44.9510 C   0  0  0  0  0  0  0  0  0  0  0  0
    7.1160   47.5440   43.9250 C   0  0  0  0  0  0  0  0  0  0  0  0
    8.0600   47.6940   40.9600 N   0  0  0  0  0  0  0  0  0  0  0  0
    7.6250   47.9200   39.6880 C   0  0  0  0  0  0  0  0  0  0  0  0
    7.9350   47.2620   38.4920 C   0  0  0  0  0  0  0  0  0  0  0  0
    7.3420   47.7040   37.3020 C   0  0  0  0  0  0  0  0  0  0  0  0
    6.4620   48.7750   37.3060 C   0  0  0  0  0  0  0  0  0  0  0  0
    6.1600   49.4300   38.4990 C   0  0  0  0  0  0  0  0  0  0  0  0
    6.7480   48.9810   39.6750 C   0  0  0  0  0  0  0  0  0  0  0  0
    5.8670   50.4950   41.4620 C   0  0  0  0  0  0  0  0  0  0  0  0
    6.6610   51.7680   41.6120 C   0  0  0  0  0  0  0  0  0  0  0  0
    6.7010   52.4420   42.8340 C   0  0  0  0  0  0  0  0  0  0  0  0
    7.4070   53.6330   42.9760 C   0  0  0  0  0  0  0  0  0  0  0  0
    8.0900   54.1680   41.8930 C   0  0  0  0  0  0  0  0  0  0  0  0
    8.0530   53.5070   40.6710 C   0  0  0  0  0  0  0  0  0  0  0  0
    7.3430   52.3220   40.5350 C   0  0  0  0  0  0  0  0  0  0  0  0
  1 18  1  0  0  0  0
  1  2  1  0  0  0  0
  2  3  1  0  0  0  0
  3  4  1  0  0  0  0
  3 10  1  0  0  0  0
  4  5  1  0  0  0  0
  5  6  1  0  0  0  0
  6  9  1  0  0  0  0
  6  8  1  0  0  0  0
  7  6  1  0  0  0  0
 10  9  1  0  0  0  0
 11  2  2  0  0  0  0
 12 11  2  0  0  0  0
 13 12  1  0  0  0  0
 14 15  2  0  0  0  0
 14 13  1  0  0  0  0
 15 16  1  0  0  0  0
 16 17  2  0  0  0  0
 17 12  1  0  0  0  0
 17  1  1  0  0  0  0
 18 19  1  0  0  0  0
 19 20  2  0  0  0  0
 20 21  1  0  0  0  0
 22 21  2  0  0  0  0
 23 22  1  0  0  0  0
 24 23  2  0  0  0  0
 24 19  1  0  0  0  0
M  END
>  <minimizedAffinity>
-7.89406395

$$$$

 OpenBabel12271914593D

 24 27  0  0  0  0  0  0  0  0999 V2000
    7.2250   47.6500   41.7060 N   0  0  0  0  0  0  0  0  0  0  0  0
    8.1000   47.1220   42.6370 C   0  0  0  0  0  0  0  0  0  0  0  0
    8.0640   47.4350   43.9590 N   0  0  0  0  0  0  0  0  0  0  0  0
    8.8370   48.5750   44.4810 C   0  0  0  0  0  0  0  0  0  0  0  0
   10.1320   48.1450   45.2060 C   0  0  0  0  0  0  0  0  0  0  0  0
   10.1030   46.7160   45.6340 N   0  0  0  0  0  0  0  0  0  0  0  0
   10.3780   46.1380   44.8160 H   0  0  0  0  0  0  0  0  0  0  0  0
   10.7940   46.5510   46.3610 H   0  0  0  0  0  0  0  0  0  0  0  0
    8.7500   46.2610   46.0720 C   0  0  0  0  0  0  0  0  0  0  0  0
    7.7240   46.3720   44.9240 C   0  0  0  0  0  0  0  0  0  0  0  0
    8.8870   46.2520   42.0370 N   0  0  0  0  0  0  0  0  0  0  0  0
    8.5330   46.2140   40.7210 C   0  0  0  0  0  0  0  0  0  0  0  0
    9.0470   45.4530   39.6640 C   0  0  0  0  0  0  0  0  0  0  0  0
    8.4970   45.6100   38.3850 C   0  0  0  0  0  0  0  0  0  0  0  0
    7.4610   46.5040   38.1660 C   0  0  0  0  0  0  0  0  0  0  0  0
    6.9550   47.2640   39.2210 C   0  0  0  0  0  0  0  0  0  0  0  0
    7.5020   47.0960   40.4870 C   0  0  0  0  0  0  0  0  0  0  0  0
    6.2390   48.6790   41.9560 C   0  0  0  0  0  0  0  0  0  0  0  0
    6.6610   50.0510   41.4970 C   0  0  0  0  0  0  0  0  0  0  0  0
    7.3510   50.9090   42.3570 C   0  0  0  0  0  0  0  0  0  0  0  0
    7.7190   52.1890   41.9530 C   0  0  0  0  0  0  0  0  0  0  0  0
    7.4060   52.6310   40.6740 C   0  0  0  0  0  0  0  0  0  0  0  0
    6.7160   51.7870   39.8130 C   0  0  0  0  0  0  0  0  0  0  0  0
    6.3480   50.5120   40.2230 C   0  0  0  0  0  0  0  0  0  0  0  0
  1 18  1  0  0  0  0
  1  2  1  0  0  0  0
  2  3  1  0  0  0  0
  3  4  1  0  0  0  0
  3 10  1  0  0  0  0
  4  5  1  0  0  0  0
  5  6  1  0  0  0  0
  6  9  1  0  0  0  0
  6  8  1  0  0  0  0
  7  6  1  0  0  0  0
 10  9  1  0  0  0  0
 11  2  2  0  0  0  0
 12 11  2  0  0  0  0
 13 12  1  0  0  0  0
 14 13  1  0  0  0  0
 15 14  2  0  0  0  0
 15 16  1  0  0  0  0
 16 17  2  0  0  0  0
 17 12  1  0  0  0  0
 17  1  1  0  0  0  0
 19 18  1  0  0  0  0
 19 20  2  0  0  0  0
 21 20  1  0  0  0  0
 22 21  2  0  0  0  0
 23 24  2  0  0  0  0
 23 22  1  0  0  0  0
 24 19  1  0  0  0  0
M  END
>  <minimizedAffinity>
-7.79030848

$$$$

 OpenBabel12271914593D

 24 27  0  0  0  0  0  0  0  0999 V2000
    7.1780   48.6610   43.3200 N   0  0  0  0  0  0  0  0  0  0  0  0
    7.5890   48.6620   44.6400 C   0  0  0  0  0  0  0  0  0  0  0  0
    7.7020   47.5350   45.3900 N   0  0  0  0  0  0  0  0  0  0  0  0
    6.5570   47.0360   46.1700 C   0  0  0  0  0  0  0  0  0  0  0  0
    6.6690   47.3590   47.6780 C   0  0  0  0  0  0  0  0  0  0  0  0
    8.0670   47.6720   48.0960 N   0  0  0  0  0  0  0  0  0  0  0  0
    8.2440   48.6710   47.8760 H   0  0  0  0  0  0  0  0  0  0  0  0
    8.1650   47.5660   49.1020 H   0  0  0  0  0  0  0  0  0  0  0  0
    9.0920   46.8630   47.3710 C   0  0  0  0  0  0  0  0  0  0  0  0
    9.0430   47.1300   45.8520 C   0  0  0  0  0  0  0  0  0  0  0  0
    7.8990   49.8950   44.9880 N   0  0  0  0  0  0  0  0  0  0  0  0
    7.6870   50.6970   43.9060 C   0  0  0  0  0  0  0  0  0  0  0  0
    7.8710   52.0750   43.7460 C   0  0  0  0  0  0  0  0  0  0  0  0
    7.5680   52.6610   42.5100 C   0  0  0  0  0  0  0  0  0  0  0  0
    7.0960   51.8910   41.4590 C   0  0  0  0  0  0  0  0  0  0  0  0
    6.9100   50.5180   41.6230 C   0  0  0  0  0  0  0  0  0  0  0  0
    7.2180   49.9450   42.8510 C   0  0  0  0  0  0  0  0  0  0  0  0
    6.7000   47.5120   42.5800 C   0  0  0  0  0  0  0  0  0  0  0  0
    7.7070   46.3950   42.4730 C   0  0  0  0  0  0  0  0  0  0  0  0
    7.4410   45.1410   43.0280 C   0  0  0  0  0  0  0  0  0  0  0  0
    8.3760   44.1130   42.9610 C   0  0  0  0  0  0  0  0  0  0  0  0
    9.5950   44.3210   42.3290 C   0  0  0  0  0  0  0  0  0  0  0  0
    9.8700   45.5670   41.7780 C   0  0  0  0  0  0  0  0  0  0  0  0
    8.9350   46.5900   41.8520 C   0  0  0  0  0  0  0  0  0  0  0  0
  1  2  1  0  0  0  0
  2 11  2  0  0  0  0
  2  3  1  0  0  0  0
  3 10  1  0  0  0  0
  3  4  1  0  0  0  0
  4  5  1  0  0  0  0
  5  6  1  0  0  0  0
  6  8  1  0  0  0  0
  7  6  1  0  0  0  0
  9  6  1  0  0  0  0
 10  9  1  0  0  0  0
 12 11  2  0  0  0  0
 13 12  1  0  0  0  0
 14 13  1  0  0  0  0
 15 16  1  0  0  0  0
 15 14  2  0  0  0  0
 16 17  2  0  0  0  0
 17  1  1  0  0  0  0
 17 12  1  0  0  0  0
 18  1  1  0  0  0  0
 19 18  1  0  0  0  0
 19 20  2  0  0  0  0
 21 20  1  0  0  0  0
 22 21  2  0  0  0  0
 23 24  2  0  0  0  0
 23 22  1  0  0  0  0
 24 19  1  0  0  0  0
M  END
>  <minimizedAffinity>
-7.58878279

$$$$

 OpenBabel12271914593D

 24 27  0  0  0  0  0  0  0  0999 V2000
    7.1330   48.9340   42.6350 N   0  0  0  0  0  0  0  0  0  0  0  0
    7.5190   50.2360   42.8940 C   0  0  0  0  0  0  0  0  0  0  0  0
    6.9200   51.3200   42.3340 N   0  0  0  0  0  0  0  0  0  0  0  0
    7.3990   51.8620   41.0520 C   0  0  0  0  0  0  0  0  0  0  0  0
    8.2540   53.1390   41.2190 C   0  0  0  0  0  0  0  0  0  0  0  0
    8.0360   53.8080   42.5340 N   0  0  0  0  0  0  0  0  0  0  0  0
    8.6320   53.3260   43.2340 H   0  0  0  0  0  0  0  0  0  0  0  0
    8.3460   54.7750   42.4930 H   0  0  0  0  0  0  0  0  0  0  0  0
    6.6230   53.7210   43.0110 C   0  0  0  0  0  0  0  0  0  0  0  0
    6.1910   52.2530   43.2140 C   0  0  0  0  0  0  0  0  0  0  0  0
    8.4830   50.2230   43.7930 N   0  0  0  0  0  0  0  0  0  0  0  0
    8.7300   48.9220   44.1170 C   0  0  0  0  0  0  0  0  0  0  0  0
    9.6440   48.3690   45.0210 C   0  0  0  0  0  0  0  0  0  0  0  0
    9.6990   46.9760   45.1640 C   0  0  0  0  0  0  0  0  0  0  0  0
    8.8620   46.1570   44.4230 C   0  0  0  0  0  0  0  0  0  0  0  0
    7.9560   46.7120   43.5200 C   0  0  0  0  0  0  0  0  0  0  0  0
    7.9040   48.0940   43.3890 C   0  0  0  0  0  0  0  0  0  0  0  0
    6.1400   48.5190   41.6660 C   0  0  0  0  0  0  0  0  0  0  0  0
    6.6840   48.3540   40.2710 C   0  0  0  0  0  0  0  0  0  0  0  0
    6.3420   49.2560   39.2610 C   0  0  0  0  0  0  0  0  0  0  0  0
    6.8150   49.0950   37.9620 C   0  0  0  0  0  0  0  0  0  0  0  0
    7.6450   48.0270   37.6520 C   0  0  0  0  0  0  0  0  0  0  0  0
    7.9880   47.1200   38.6490 C   0  0  0  0  0  0  0  0  0  0  0  0
    7.5090   47.2850   39.9420 C   0  0  0  0  0  0  0  0  0  0  0  0
  1  2  1  0  0  0  0
  1 17  1  0  0  0  0
  2 11  2  0  0  0  0
  3  2  1  0  0  0  0
  3 10  1  0  0  0  0
  4  5  1  0  0  0  0
  4  3  1  0  0  0  0
  5  6  1  0  0  0  0
  6  9  1  0  0  0  0
  6  7  1  0  0  0  0
  8  6  1  0  0  0  0
  9 10  1  0  0  0  0
 11 12  2  0  0  0  0
 12 13  1  0  0  0  0
 13 14  1  0  0  0  0
 15 14  2  0  0  0  0
 16 15  1  0  0  0  0
 17 16  2  0  0  0  0
 17 12  1  0  0  0  0
 18  1  1  0  0  0  0
 19 18  1  0  0  0  0
 20 19  2  0  0  0  0
 21 20  1  0  0  0  0
 22 21  2  0  0  0  0
 22 23  1  0  0  0  0
 23 24  2  0  0  0  0
 24 19  1  0  0  0  0
M  END
>  <minimizedAffinity>
-7.52842569

$$$$

 OpenBabel12271914593D

 24 27  0  0  0  0  0  0  0  0999 V2000
    8.7490   49.1300   43.2690 N   0  0  0  0  0  0  0  0  0  0  0  0
    7.8650   50.1690   43.0500 C   0  0  0  0  0  0  0  0  0  0  0  0
    7.9700   51.3810   43.6550 N   0  0  0  0  0  0  0  0  0  0  0  0
    7.3120   51.6320   44.9480 C   0  0  0  0  0  0  0  0  0  0  0  0
    6.0100   52.4550   44.8130 C   0  0  0  0  0  0  0  0  0  0  0  0
    5.9350   53.2030   43.5240 N   0  0  0  0  0  0  0  0  0  0  0  0
    5.5870   52.5460   42.8000 H   0  0  0  0  0  0  0  0  0  0  0  0
    5.2570   53.9570   43.5940 H   0  0  0  0  0  0  0  0  0  0  0  0
    7.2600   53.7180   43.0660 C   0  0  0  0  0  0  0  0  0  0  0  0
    8.2530   52.5630   42.8190 C   0  0  0  0  0  0  0  0  0  0  0  0
    6.9900   49.7980   42.1370 N   0  0  0  0  0  0  0  0  0  0  0  0
    7.2950   48.5230   41.7650 C   0  0  0  0  0  0  0  0  0  0  0  0
    6.6860   47.6790   40.8280 C   0  0  0  0  0  0  0  0  0  0  0  0
    7.2050   46.3910   40.6370 C   0  0  0  0  0  0  0  0  0  0  0  0
    8.3040   45.9570   41.3610 C   0  0  0  0  0  0  0  0  0  0  0  0
    8.9050   46.7990   42.2970 C   0  0  0  0  0  0  0  0  0  0  0  0
    8.3880   48.0760   42.4750 C   0  0  0  0  0  0  0  0  0  0  0  0
    9.8250   49.1200   44.2370 C   0  0  0  0  0  0  0  0  0  0  0  0
    9.5780   48.2090   45.4120 C   0  0  0  0  0  0  0  0  0  0  0  0
    8.2990   48.0820   45.9600 C   0  0  0  0  0  0  0  0  0  0  0  0
    8.0670   47.2670   47.0630 C   0  0  0  0  0  0  0  0  0  0  0  0
    9.1140   46.5580   47.6360 C   0  0  0  0  0  0  0  0  0  0  0  0
   10.3910   46.6800   47.1020 C   0  0  0  0  0  0  0  0  0  0  0  0
   10.6170   47.4990   46.0030 C   0  0  0  0  0  0  0  0  0  0  0  0
  1 18  1  0  0  0  0
  2  1  1  0  0  0  0
  2  3  1  0  0  0  0
  3  4  1  0  0  0  0
  5  4  1  0  0  0  0
  6  8  1  0  0  0  0
  6  5  1  0  0  0  0
  7  6  1  0  0  0  0
  9  6  1  0  0  0  0
 10  9  1  0  0  0  0
 10  3  1  0  0  0  0
 11  2  2  0  0  0  0
 12 11  2  0  0  0  0
 12 17  1  0  0  0  0
 13 12  1  0  0  0  0
 14 13  1  0  0  0  0
 14 15  2  0  0  0  0
 15 16  1  0  0  0  0
 16 17  2  0  0  0  0
 17  1  1  0  0  0  0
 18 19  1  0  0  0  0
 19 20  2  0  0  0  0
 19 24  1  0  0  0  0
 20 21  1  0  0  0  0
 21 22  2  0  0  0  0
 23 22  1  0  0  0  0
 24 23  2  0  0  0  0
M  END
>  <minimizedAffinity>
-7.42722607

$$$$

 OpenBabel12271914593D

 24 27  0  0  0  0  0  0  0  0999 V2000
    8.8110   46.6770   49.2510 N   0  0  0  0  0  0  0  0  0  0  0  0
    7.6650   47.0890   49.9040 C   0  0  0  0  0  0  0  0  0  0  0  0
    7.5880   47.2510   51.2510 N   0  0  0  0  0  0  0  0  0  0  0  0
    7.1910   46.1290   52.1180 C   0  0  0  0  0  0  0  0  0  0  0  0
    5.7260   46.2290   52.6000 C   0  0  0  0  0  0  0  0  0  0  0  0
    5.1790   47.6130   52.4920 N   0  0  0  0  0  0  0  0  0  0  0  0
    4.8580   47.7480   51.5140 H   0  0  0  0  0  0  0  0  0  0  0  0
    4.3630   47.7180   53.0900 H   0  0  0  0  0  0  0  0  0  0  0  0
    6.1930   48.6700   52.7840 C   0  0  0  0  0  0  0  0  0  0  0  0
    7.3680   48.6080   51.7860 C   0  0  0  0  0  0  0  0  0  0  0  0
    6.7340   47.3480   49.0070 N   0  0  0  0  0  0  0  0  0  0  0  0
    7.2650   47.1020   47.7760 C   0  0  0  0  0  0  0  0  0  0  0  0
    6.7000   47.2280   46.5020 C   0  0  0  0  0  0  0  0  0  0  0  0
    7.4750   46.9000   45.3810 C   0  0  0  0  0  0  0  0  0  0  0  0
    8.7800   46.4580   45.5290 C   0  0  0  0  0  0  0  0  0  0  0  0
    9.3380   46.3300   46.8010 C   0  0  0  0  0  0  0  0  0  0  0  0
    8.5650   46.6630   47.9060 C   0  0  0  0  0  0  0  0  0  0  0  0
   10.0410   46.2470   49.8830 C   0  0  0  0  0  0  0  0  0  0  0  0
   10.8120   47.3630   50.5390 C   0  0  0  0  0  0  0  0  0  0  0  0
   11.6040   48.2250   49.7770 C   0  0  0  0  0  0  0  0  0  0  0  0
   12.3430   49.2400   50.3770 C   0  0  0  0  0  0  0  0  0  0  0  0
   12.2970   49.4140   51.7540 C   0  0  0  0  0  0  0  0  0  0  0  0
   11.5150   48.5580   52.5210 C   0  0  0  0  0  0  0  0  0  0  0  0
   10.7830   47.5450   51.9170 C   0  0  0  0  0  0  0  0  0  0  0  0
  1 18  1  0  0  0  0
  1  2  1  0  0  0  0
  2  3  1  0  0  0  0
  3 10  1  0  0  0  0
  3  4  1  0  0  0  0
  4  5  1  0  0  0  0
  6  5  1  0  0  0  0
  6  9  1  0  0  0  0
  6  8  1  0  0  0  0
  7  6  1  0  0  0  0
 10  9  1  0  0  0  0
 11  2  2  0  0  0  0
 12 17  1  0  0  0  0
 12 11  2  0  0  0  0
 13 12  1  0  0  0  0
 14 15  2  0  0  0  0
 14 13  1  0  0  0  0
 15 16  1  0  0  0  0
 16 17  2  0  0  0  0
 17  1  1  0  0  0  0
 18 19  1  0  0  0  0
 19 24  2  0  0  0  0
 20 21  2  0  0  0  0
 20 19  1  0  0  0  0
 21 22  1  0  0  0  0
 22 23  2  0  0  0  0
 24 23  1  0  0  0  0
M  END
>  <minimizedAffinity>
-7.20952129

$$$$
