
 OpenBabel12271914583D

 42 46  0  0  1  0  0  0  0  0999 V2000
    8.9680   42.8370   43.0980 C   0  0  1  0  0  0  0  0  0  0  0  0
    8.5140   41.3960   42.9190 C   0  0  1  0  0  0  0  0  0  0  0  0
    8.4560   40.5950   44.1490 C   0  0  0  0  0  0  0  0  0  0  0  0
    9.6840   40.5010   44.8020 C   0  0  0  0  0  0  0  0  0  0  0  0
    9.7990   39.7690   45.9910 C   0  0  0  0  0  0  0  0  0  0  0  0
   10.9030   39.5500   46.7900 O   0  0  0  0  0  0  0  0  0  0  0  0
   10.5290   38.5950   47.7980 C   0  0  0  0  0  0  0  0  0  0  0  0
    9.1010   38.4870   47.6970 O   0  0  0  0  0  0  0  0  0  0  0  0
    8.7520   39.1470   46.5270 C   0  0  0  0  0  0  0  0  0  0  0  0
    7.5180   39.2260   45.8970 C   0  0  0  0  0  0  0  0  0  0  0  0
    7.3790   39.9500   44.7010 C   0  0  0  0  0  0  0  0  0  0  0  0
    5.9860   39.9170   44.2100 C   0  0  0  0  0  0  0  0  0  0  0  0
    5.5780   41.3160   43.9050 C   0  0  0  0  0  0  0  0  0  0  0  0
    6.0240   41.8480   42.6260 N   0  0  2  0  0  0  0  0  0  0  0  0
    5.9510   42.8610   42.6720 H   0  0  0  0  0  0  0  0  0  0  0  0
    5.0700   41.3910   41.5950 C   0  0  0  0  0  0  0  0  0  0  0  0
    5.7490   40.3030   40.7970 C   0  0  0  0  0  0  0  0  0  0  0  0
    7.1860   40.2580   41.2320 C   0  0  0  0  0  0  0  0  0  0  0  0
    7.3150   41.4880   42.0720 C   0  0  2  0  0  0  0  0  0  0  0  0
    7.6910   42.6000   41.1620 C   0  0  0  0  0  0  0  0  0  0  0  0
    8.6280   43.3610   41.7260 C   0  0  2  0  0  0  0  0  0  0  0  0
    9.2290   44.4460   41.1700 O   0  0  0  0  0  0  0  0  0  0  0  0
    8.3960   45.4510   40.5490 C   0  0  0  0  0  0  0  0  0  0  0  0
    8.1280   43.5420   44.0410 O   0  0  0  0  0  0  0  0  0  0  0  0
    8.7580   44.3520   44.9510 C   0  0  0  0  0  0  0  0  0  0  0  0
    9.3250   43.9570   45.9100 O   0  0  0  0  0  0  0  0  0  0  0  0
    8.7280   45.8650   44.7170 C   0  0  2  0  0  0  0  0  0  0  0  0
    9.6870   46.1680   43.7380 O   0  0  0  0  0  0  0  0  0  0  0  0
   10.3360   45.4480   43.6420 H   0  0  0  0  0  0  0  0  0  0  0  0
    8.9330   46.6190   46.0070 C   0  0  0  0  0  0  0  0  0  0  0  0
   10.2830   47.3040   46.1570 C   0  0  0  0  0  0  0  0  0  0  0  0
   10.5700   48.1650   45.3860 O   0  0  0  0  0  0  0  0  0  0  0  0
   11.1280   46.9220   47.1650 O   0  0  0  0  0  0  0  0  0  0  0  0
   10.4900   46.2950   48.3190 C   0  0  0  0  0  0  0  0  0  0  0  0
    7.3480   46.1710   44.1580 C   0  0  0  0  0  0  0  0  0  0  0  0
    6.8730   47.5960   44.2890 C   0  0  0  0  0  0  0  0  0  0  0  0
    7.0600   48.4560   43.0520 C   0  0  0  0  0  0  0  0  0  0  0  0
    7.9300   49.6410   43.4170 C   0  0  0  0  0  0  0  0  0  0  0  0
    7.6480   50.8510   42.5510 C   0  0  0  0  0  0  0  0  0  0  0  0
    7.7280   50.0250   44.8620 C   0  0  0  0  0  0  0  0  0  0  0  0
    9.2820   49.2570   43.2640 O   0  0  0  0  0  0  0  0  0  0  0  0
    9.5070   48.7420   44.0510 H   0  0  0  0  0  0  0  0  0  0  0  0
  1 24  1  1  0  0  0
  2 19  1  1  0  0  0
  2  1  1  0  0  0  0
  2  3  1  0  0  0  0
  3 11  2  0  0  0  0
  3  4  1  0  0  0  0
  4  5  1  0  0  0  0
  5  9  2  0  0  0  0
  5  6  1  0  0  0  0
  6  7  1  0  0  0  0
  8  7  1  0  0  0  0
  9  8  1  0  0  0  0
 10  9  1  0  0  0  0
 11 10  1  0  0  0  0
 12 11  1  0  0  0  0
 13 12  1  0  0  0  0
 14 19  1  6  0  0  0
 14 15  1  0  0  0  0
 14 13  1  0  0  0  0
 16 14  1  0  0  0  0
 17 18  1  0  0  0  0
 17 16  1  0  0  0  0
 18 19  1  0  0  0  0
 19 20  1  6  0  0  0
 20 21  1  0  0  0  0
 21 22  1  6  0  0  0
 21  1  1  0  0  0  0
 23 22  1  0  0  0  0
 24 25  1  0  0  0  0
 25 26  2  0  0  0  0
 27 35  1  6  0  0  0
 27 25  1  0  0  0  0
 27 30  1  0  0  0  0
 28 27  1  0  0  0  0
 29 28  1  0  0  0  0
 30 31  1  0  0  0  0
 31 33  1  0  0  0  0
 32 31  2  0  0  0  0
 33 34  1  0  0  0  0
 35 36  1  0  0  0  0
 37 38  1  0  0  0  0
 37 36  1  0  0  0  0
 38 40  1  0  0  0  0
 39 38  1  0  0  0  0
 41 38  1  0  0  0  0
 41 42  1  0  0  0  0
M  END
>  <minimizedAffinity>
-7.39003038

$$$$

 OpenBabel12271914583D

 42 46  0  0  1  0  0  0  0  0999 V2000
    8.8550   42.6130   43.0130 C   0  0  1  0  0  0  0  0  0  0  0  0
    8.3950   41.1650   42.9200 C   0  0  1  0  0  0  0  0  0  0  0  0
    8.3740   40.4280   44.1910 C   0  0  0  0  0  0  0  0  0  0  0  0
    9.6220   40.3640   44.8090 C   0  0  0  0  0  0  0  0  0  0  0  0
    9.7730   39.6910   46.0290 C   0  0  0  0  0  0  0  0  0  0  0  0
   10.9010   39.5100   46.8040 O   0  0  0  0  0  0  0  0  0  0  0  0
   10.5570   38.6080   47.8700 C   0  0  0  0  0  0  0  0  0  0  0  0
    9.1270   38.4980   47.8180 O   0  0  0  0  0  0  0  0  0  0  0  0
    8.7420   39.1000   46.6280 C   0  0  0  0  0  0  0  0  0  0  0  0
    7.4900   39.1500   46.0330 C   0  0  0  0  0  0  0  0  0  0  0  0
    7.3150   39.8130   44.8070 C   0  0  0  0  0  0  0  0  0  0  0  0
    5.9070   39.7590   44.3610 C   0  0  0  0  0  0  0  0  0  0  0  0
    5.4910   41.1420   43.9990 C   0  0  0  0  0  0  0  0  0  0  0  0
    5.8970   41.6080   42.6830 N   0  0  2  0  0  0  0  0  0  0  0  0
    5.8270   42.6220   42.6800 H   0  0  0  0  0  0  0  0  0  0  0  0
    4.9120   41.1020   41.7060 C   0  0  0  0  0  0  0  0  0  0  0  0
    5.5650   39.9740   40.9420 C   0  0  0  0  0  0  0  0  0  0  0  0
    7.0150   39.9480   41.3340 C   0  0  0  0  0  0  0  0  0  0  0  0
    7.1700   41.2180   42.1070 C   0  0  2  0  0  0  0  0  0  0  0  0
    7.5190   42.2830   41.1320 C   0  0  0  0  0  0  0  0  0  0  0  0
    8.4730   43.0690   41.6280 C   0  0  2  0  0  0  0  0  0  0  0  0
    9.0580   44.1230   41.0010 O   0  0  0  0  0  0  0  0  0  0  0  0
    8.4770   44.5950   39.7630 C   0  0  0  0  0  0  0  0  0  0  0  0
    8.0440   43.3660   43.9460 O   0  0  0  0  0  0  0  0  0  0  0  0
    8.7060   44.1950   44.8160 C   0  0  0  0  0  0  0  0  0  0  0  0
    9.3020   43.8200   45.7650 O   0  0  0  0  0  0  0  0  0  0  0  0
    8.6720   45.7020   44.5490 C   0  0  2  0  0  0  0  0  0  0  0  0
    9.5050   45.9630   43.4500 O   0  0  0  0  0  0  0  0  0  0  0  0
   10.1260   45.2280   43.2930 H   0  0  0  0  0  0  0  0  0  0  0  0
    9.0490   46.4830   45.7830 C   0  0  0  0  0  0  0  0  0  0  0  0
    9.9220   47.7050   45.5420 C   0  0  0  0  0  0  0  0  0  0  0  0
   10.9520   47.7900   46.1340 O   0  0  0  0  0  0  0  0  0  0  0  0
    9.5110   48.6680   44.6590 O   0  0  0  0  0  0  0  0  0  0  0  0
    8.3250   49.4230   45.0560 C   0  0  0  0  0  0  0  0  0  0  0  0
    7.2380   46.0220   44.1580 C   0  0  0  0  0  0  0  0  0  0  0  0
    6.9980   46.3620   42.7090 C   0  0  0  0  0  0  0  0  0  0  0  0
    6.3070   47.6920   42.4630 C   0  0  0  0  0  0  0  0  0  0  0  0
    7.1590   48.5080   41.5120 C   0  0  0  0  0  0  0  0  0  0  0  0
    6.8570   48.2000   40.0600 C   0  0  0  0  0  0  0  0  0  0  0  0
    6.9510   49.9830   41.7440 C   0  0  0  0  0  0  0  0  0  0  0  0
    8.5160   48.2210   41.7820 O   0  0  0  0  0  0  0  0  0  0  0  0
    8.7500   48.7360   42.5660 H   0  0  0  0  0  0  0  0  0  0  0  0
  1 24  1  1  0  0  0
  2 19  1  1  0  0  0
  2  1  1  0  0  0  0
  2  3  1  0  0  0  0
  3 11  2  0  0  0  0
  3  4  1  0  0  0  0
  4  5  1  0  0  0  0
  5  9  2  0  0  0  0
  5  6  1  0  0  0  0
  6  7  1  0  0  0  0
  8  7  1  0  0  0  0
  9  8  1  0  0  0  0
 10  9  1  0  0  0  0
 11 10  1  0  0  0  0
 12 11  1  0  0  0  0
 13 12  1  0  0  0  0
 14 19  1  6  0  0  0
 14 13  1  0  0  0  0
 15 14  1  0  0  0  0
 16 14  1  0  0  0  0
 17 18  1  0  0  0  0
 17 16  1  0  0  0  0
 18 19  1  0  0  0  0
 19 20  1  6  0  0  0
 20 21  1  0  0  0  0
 21 22  1  6  0  0  0
 21  1  1  0  0  0  0
 23 22  1  0  0  0  0
 24 25  1  0  0  0  0
 25 26  2  0  0  0  0
 27 35  1  6  0  0  0
 27 25  1  0  0  0  0
 27 30  1  0  0  0  0
 28 27  1  0  0  0  0
 29 28  1  0  0  0  0
 31 30  1  0  0  0  0
 31 32  2  0  0  0  0
 33 34  1  0  0  0  0
 33 31  1  0  0  0  0
 36 35  1  0  0  0  0
 37 36  1  0  0  0  0
 38 40  1  0  0  0  0
 38 41  1  0  0  0  0
 38 37  1  0  0  0  0
 39 38  1  0  0  0  0
 41 42  1  0  0  0  0
M  END
>  <minimizedAffinity>
-7.1163826

$$$$

 OpenBabel12271914583D

 42 46  0  0  1  0  0  0  0  0999 V2000
    8.4710   43.7560   43.3150 C   0  0  1  0  0  0  0  0  0  0  0  0
    8.8870   45.2180   43.3590 C   0  0  1  0  0  0  0  0  0  0  0  0
    8.3250   46.0670   42.3010 C   0  0  0  0  0  0  0  0  0  0  0  0
    8.6640   45.6410   41.0170 C   0  0  0  0  0  0  0  0  0  0  0  0
    8.2090   46.3450   39.8940 C   0  0  0  0  0  0  0  0  0  0  0  0
    8.4210   46.1020   38.5530 O   0  0  0  0  0  0  0  0  0  0  0  0
    7.8800   47.2120   37.8170 C   0  0  0  0  0  0  0  0  0  0  0  0
    7.1200   47.9610   38.7770 O   0  0  0  0  0  0  0  0  0  0  0  0
    7.4480   47.4300   40.0170 C   0  0  0  0  0  0  0  0  0  0  0  0
    7.0950   47.8740   41.2840 C   0  0  0  0  0  0  0  0  0  0  0  0
    7.5440   47.1870   42.4240 C   0  0  0  0  0  0  0  0  0  0  0  0
    7.0440   47.8170   43.6640 C   0  0  0  0  0  0  0  0  0  0  0  0
    6.4500   46.7450   44.5110 C   0  0  0  0  0  0  0  0  0  0  0  0
    7.3880   45.9490   45.2860 N   0  0  2  0  0  0  0  0  0  0  0  0
    6.9120   45.0950   45.5630 H   0  0  0  0  0  0  0  0  0  0  0  0
    7.6940   46.6970   46.5220 C   0  0  0  0  0  0  0  0  0  0  0  0
    9.0870   47.2630   46.3790 C   0  0  0  0  0  0  0  0  0  0  0  0
    9.6840   46.6760   45.1320 C   0  0  0  0  0  0  0  0  0  0  0  0
    8.6990   45.6140   44.7640 C   0  0  2  0  0  0  0  0  0  0  0  0
    9.1130   44.3730   45.4690 C   0  0  0  0  0  0  0  0  0  0  0  0
    8.9970   43.3210   44.6590 C   0  0  2  0  0  0  0  0  0  0  0  0
    9.3150   42.0350   44.9570 O   0  0  0  0  0  0  0  0  0  0  0  0
    8.8980   41.5000   46.2340 C   0  0  0  0  0  0  0  0  0  0  0  0
    7.0320   43.6150   43.3570 O   0  0  0  0  0  0  0  0  0  0  0  0
    6.5250   42.3520   43.1840 C   0  0  0  0  0  0  0  0  0  0  0  0
    6.0210   41.7160   44.0430 O   0  0  0  0  0  0  0  0  0  0  0  0
    6.6180   41.7180   41.7930 C   0  0  2  0  0  0  0  0  0  0  0  0
    7.7870   40.9430   41.7510 O   0  0  0  0  0  0  0  0  0  0  0  0
    8.4080   41.1980   42.4570 H   0  0  0  0  0  0  0  0  0  0  0  0
    6.5580   42.7670   40.7120 C   0  0  0  0  0  0  0  0  0  0  0  0
    7.2610   42.4080   39.4110 C   0  0  0  0  0  0  0  0  0  0  0  0
    6.5940   42.1230   38.4670 O   0  0  0  0  0  0  0  0  0  0  0  0
    8.6300   42.4210   39.3550 O   0  0  0  0  0  0  0  0  0  0  0  0
    9.2050   42.4980   38.0150 C   0  0  0  0  0  0  0  0  0  0  0  0
    5.4170   40.7930   41.6780 C   0  0  0  0  0  0  0  0  0  0  0  0
    4.1510   41.4030   41.1310 C   0  0  0  0  0  0  0  0  0  0  0  0
    3.5370   40.6700   39.9520 C   0  0  0  0  0  0  0  0  0  0  0  0
    2.7720   41.6700   39.1090 C   0  0  0  0  0  0  0  0  0  0  0  0
    1.9680   41.0030   38.0130 C   0  0  0  0  0  0  0  0  0  0  0  0
    1.8350   42.4830   39.9670 C   0  0  0  0  0  0  0  0  0  0  0  0
    3.7050   42.5620   38.5320 O   0  0  0  0  0  0  0  0  0  0  0  0
    3.9350   43.1960   39.2250 H   0  0  0  0  0  0  0  0  0  0  0  0
  1 24  1  1  0  0  0
  1  2  1  0  0  0  0
  1 21  1  0  0  0  0
  2 19  1  1  0  0  0
  3 11  2  0  0  0  0
  3  2  1  0  0  0  0
  4  3  1  0  0  0  0
  5  9  2  0  0  0  0
  5  4  1  0  0  0  0
  6  5  1  0  0  0  0
  7  6  1  0  0  0  0
  7  8  1  0  0  0  0
  8  9  1  0  0  0  0
  9 10  1  0  0  0  0
 10 11  1  0  0  0  0
 11 12  1  0  0  0  0
 12 13  1  0  0  0  0
 13 14  1  0  0  0  0
 14 19  1  6  0  0  0
 14 15  1  0  0  0  0
 14 16  1  0  0  0  0
 17 16  1  0  0  0  0
 18 17  1  0  0  0  0
 19 18  1  1  0  0  0
 19 20  1  0  0  0  0
 21 22  1  6  0  0  0
 21 20  1  0  0  0  0
 22 23  1  0  0  0  0
 25 24  1  0  0  0  0
 25 26  2  0  0  0  0
 27 30  1  6  0  0  0
 27 25  1  0  0  0  0
 28 27  1  0  0  0  0
 28 29  1  0  0  0  0
 31 30  1  0  0  0  0
 32 31  2  0  0  0  0
 33 31  1  0  0  0  0
 34 33  1  0  0  0  0
 35 27  1  0  0  0  0
 36 35  1  0  0  0  0
 37 36  1  0  0  0  0
 38 37  1  0  0  0  0
 38 40  1  0  0  0  0
 39 38  1  0  0  0  0
 41 38  1  0  0  0  0
 41 42  1  0  0  0  0
M  END
>  <minimizedAffinity>
-6.81428242

$$$$

 OpenBabel12271914583D

 42 46  0  0  1  0  0  0  0  0999 V2000
    8.6380   42.8400   42.4190 C   0  0  1  0  0  0  0  0  0  0  0  0
    8.2080   41.3820   42.3530 C   0  0  1  0  0  0  0  0  0  0  0  0
    8.1110   40.6940   43.6470 C   0  0  0  0  0  0  0  0  0  0  0  0
    9.3150   40.6780   44.3520 C   0  0  0  0  0  0  0  0  0  0  0  0
    9.3920   40.0560   45.6050 C   0  0  0  0  0  0  0  0  0  0  0  0
   10.4660   39.9260   46.4620 O   0  0  0  0  0  0  0  0  0  0  0  0
   10.0640   39.0590   47.5360 C   0  0  0  0  0  0  0  0  0  0  0  0
    8.6430   38.9210   47.3910 O   0  0  0  0  0  0  0  0  0  0  0  0
    8.3320   39.4690   46.1550 C   0  0  0  0  0  0  0  0  0  0  0  0
    7.1230   39.4720   45.4750 C   0  0  0  0  0  0  0  0  0  0  0  0
    7.0220   40.0840   44.2140 C   0  0  0  0  0  0  0  0  0  0  0  0
    5.6490   39.9860   43.6750 C   0  0  0  0  0  0  0  0  0  0  0  0
    5.2370   41.3470   43.2300 C   0  0  0  0  0  0  0  0  0  0  0  0
    5.7260   41.7680   41.9270 N   0  0  2  0  0  0  0  0  0  0  0  0
    5.6400   42.7800   41.8790 H   0  0  0  0  0  0  0  0  0  0  0  0
    4.8190   41.2070   40.9060 C   0  0  0  0  0  0  0  0  0  0  0  0
    5.5410   40.0630   40.2350 C   0  0  0  0  0  0  0  0  0  0  0  0
    6.9600   40.0790   40.7260 C   0  0  0  0  0  0  0  0  0  0  0  0
    7.0420   41.3800   41.4560 C   0  0  2  0  0  0  0  0  0  0  0  0
    7.4400   42.4130   40.4650 C   0  0  0  0  0  0  0  0  0  0  0  0
    8.3450   43.2350   40.9930 C   0  0  2  0  0  0  0  0  0  0  0  0
    8.9550   44.2750   40.3660 O   0  0  0  0  0  0  0  0  0  0  0  0
    8.3190   44.8420   39.1970 C   0  0  0  0  0  0  0  0  0  0  0  0
    7.7530   43.6140   43.2630 O   0  0  0  0  0  0  0  0  0  0  0  0
    8.3400   44.4610   44.1680 C   0  0  0  0  0  0  0  0  0  0  0  0
    9.1070   44.1160   44.9980 O   0  0  0  0  0  0  0  0  0  0  0  0
    7.9820   45.9480   44.1060 C   0  0  2  0  0  0  0  0  0  0  0  0
    6.7670   46.1270   44.7850 O   0  0  0  0  0  0  0  0  0  0  0  0
    6.2860   45.2850   44.8790 H   0  0  0  0  0  0  0  0  0  0  0  0
    7.9480   46.4420   42.6810 C   0  0  0  0  0  0  0  0  0  0  0  0
    7.0830   47.6690   42.4330 C   0  0  0  0  0  0  0  0  0  0  0  0
    5.9000   47.5370   42.4320 O   0  0  0  0  0  0  0  0  0  0  0  0
    7.6780   48.8850   42.2220 O   0  0  0  0  0  0  0  0  0  0  0  0
    7.6950   49.7870   43.3710 C   0  0  0  0  0  0  0  0  0  0  0  0
    9.0780   46.6720   44.8720 C   0  0  0  0  0  0  0  0  0  0  0  0
    8.6450   47.4430   46.0930 C   0  0  0  0  0  0  0  0  0  0  0  0
    9.3370   47.0500   47.3850 C   0  0  0  0  0  0  0  0  0  0  0  0
    8.3390   46.3230   48.2640 C   0  0  0  0  0  0  0  0  0  0  0  0
    8.7710   46.2830   49.7150 C   0  0  0  0  0  0  0  0  0  0  0  0
    6.9830   46.9790   48.1840 C   0  0  0  0  0  0  0  0  0  0  0  0
    8.2030   45.0040   47.7760 O   0  0  0  0  0  0  0  0  0  0  0  0
    7.6160   45.0590   47.0100 H   0  0  0  0  0  0  0  0  0  0  0  0
  1 24  1  1  0  0  0
  2 19  1  1  0  0  0
  2  1  1  0  0  0  0
  2  3  1  0  0  0  0
  3 11  2  0  0  0  0
  3  4  1  0  0  0  0
  4  5  1  0  0  0  0
  5  9  2  0  0  0  0
  5  6  1  0  0  0  0
  6  7  1  0  0  0  0
  8  7  1  0  0  0  0
  9  8  1  0  0  0  0
 10  9  1  0  0  0  0
 11 10  1  0  0  0  0
 12 11  1  0  0  0  0
 13 12  1  0  0  0  0
 14 19  1  6  0  0  0
 14 13  1  0  0  0  0
 15 14  1  0  0  0  0
 16 14  1  0  0  0  0
 17 18  1  0  0  0  0
 17 16  1  0  0  0  0
 18 19  1  0  0  0  0
 19 20  1  6  0  0  0
 20 21  1  0  0  0  0
 21 22  1  6  0  0  0
 21  1  1  0  0  0  0
 23 22  1  0  0  0  0
 24 25  1  0  0  0  0
 25 26  2  0  0  0  0
 27 30  1  6  0  0  0
 27 25  1  0  0  0  0
 27 28  1  0  0  0  0
 27 35  1  0  0  0  0
 28 29  1  0  0  0  0
 31 30  1  0  0  0  0
 32 31  2  0  0  0  0
 33 31  1  0  0  0  0
 33 34  1  0  0  0  0
 35 36  1  0  0  0  0
 36 37  1  0  0  0  0
 37 38  1  0  0  0  0
 38 39  1  0  0  0  0
 40 38  1  0  0  0  0
 41 38  1  0  0  0  0
 42 41  1  0  0  0  0
M  END
>  <minimizedAffinity>
-6.79640865

$$$$

 OpenBabel12271914583D

 42 46  0  0  1  0  0  0  0  0999 V2000
    8.4350   43.6860   43.3570 C   0  0  1  0  0  0  0  0  0  0  0  0
    8.9200   45.1260   43.4280 C   0  0  1  0  0  0  0  0  0  0  0  0
    8.4060   46.0180   42.3800 C   0  0  0  0  0  0  0  0  0  0  0  0
    8.7340   45.5960   41.0920 C   0  0  0  0  0  0  0  0  0  0  0  0
    8.3220   46.3400   39.9780 C   0  0  0  0  0  0  0  0  0  0  0  0
    8.5320   46.1080   38.6340 O   0  0  0  0  0  0  0  0  0  0  0  0
    8.0490   47.2540   37.9130 C   0  0  0  0  0  0  0  0  0  0  0  0
    7.3190   48.0230   38.8800 O   0  0  0  0  0  0  0  0  0  0  0  0
    7.6120   47.4580   40.1140 C   0  0  0  0  0  0  0  0  0  0  0  0
    7.2710   47.8970   41.3850 C   0  0  0  0  0  0  0  0  0  0  0  0
    7.6790   47.1720   42.5170 C   0  0  0  0  0  0  0  0  0  0  0  0
    7.2000   47.8050   43.7640 C   0  0  0  0  0  0  0  0  0  0  0  0
    6.5500   46.7490   44.5890 C   0  0  0  0  0  0  0  0  0  0  0  0
    7.4430   45.8970   45.3570 N   0  0  2  0  0  0  0  0  0  0  0  0
    6.9240   45.0620   45.6170 H   0  0  0  0  0  0  0  0  0  0  0  0
    7.7750   46.6090   46.6070 C   0  0  0  0  0  0  0  0  0  0  0  0
    9.1940   47.1110   46.4830 C   0  0  0  0  0  0  0  0  0  0  0  0
    9.7720   46.5160   45.2300 C   0  0  0  0  0  0  0  0  0  0  0  0
    8.7410   45.5080   44.8380 C   0  0  2  0  0  0  0  0  0  0  0  0
    9.0900   44.2370   45.5250 C   0  0  0  0  0  0  0  0  0  0  0  0
    8.9290   43.2060   44.6980 C   0  0  2  0  0  0  0  0  0  0  0  0
    9.1840   41.9010   44.9770 O   0  0  0  0  0  0  0  0  0  0  0  0
    9.6120   41.0370   43.8980 C   0  0  0  0  0  0  0  0  0  0  0  0
    6.9900   43.6130   43.3870 O   0  0  0  0  0  0  0  0  0  0  0  0
    6.4170   42.4470   42.9480 C   0  0  0  0  0  0  0  0  0  0  0  0
    6.0210   41.5930   43.6620 O   0  0  0  0  0  0  0  0  0  0  0  0
    6.2810   42.2300   41.4390 C   0  0  2  0  0  0  0  0  0  0  0  0
    6.0710   43.4830   40.8410 O   0  0  0  0  0  0  0  0  0  0  0  0
    5.7700   44.1420   41.4940 H   0  0  0  0  0  0  0  0  0  0  0  0
    5.1940   41.2320   41.1270 C   0  0  0  0  0  0  0  0  0  0  0  0
    4.0390   41.7610   40.2910 C   0  0  0  0  0  0  0  0  0  0  0  0
    4.2540   42.0730   39.1620 O   0  0  0  0  0  0  0  0  0  0  0  0
    2.7910   41.8620   40.8470 O   0  0  0  0  0  0  0  0  0  0  0  0
    2.6950   41.4820   42.2540 C   0  0  0  0  0  0  0  0  0  0  0  0
    7.6230   41.6890   40.9740 C   0  0  0  0  0  0  0  0  0  0  0  0
    7.7540   41.3940   39.5010 C   0  0  0  0  0  0  0  0  0  0  0  0
    8.4950   42.4440   38.6950 C   0  0  0  0  0  0  0  0  0  0  0  0
    7.6170   42.8700   37.5360 C   0  0  0  0  0  0  0  0  0  0  0  0
    8.4080   43.5340   36.4270 C   0  0  0  0  0  0  0  0  0  0  0  0
    6.8840   41.6840   36.9610 C   0  0  0  0  0  0  0  0  0  0  0  0
    6.6470   43.7730   38.0280 O   0  0  0  0  0  0  0  0  0  0  0  0
    5.9680   43.2330   38.4540 H   0  0  0  0  0  0  0  0  0  0  0  0
  1 24  1  1  0  0  0
  1  2  1  0  0  0  0
  1 21  1  0  0  0  0
  2 19  1  1  0  0  0
  3 11  2  0  0  0  0
  3  2  1  0  0  0  0
  4  3  1  0  0  0  0
  5  9  2  0  0  0  0
  5  4  1  0  0  0  0
  6  5  1  0  0  0  0
  7  6  1  0  0  0  0
  7  8  1  0  0  0  0
  8  9  1  0  0  0  0
  9 10  1  0  0  0  0
 10 11  1  0  0  0  0
 11 12  1  0  0  0  0
 12 13  1  0  0  0  0
 13 14  1  0  0  0  0
 14 19  1  6  0  0  0
 14 15  1  0  0  0  0
 14 16  1  0  0  0  0
 17 16  1  0  0  0  0
 18 17  1  0  0  0  0
 19 18  1  1  0  0  0
 19 20  1  0  0  0  0
 21 22  1  6  0  0  0
 21 20  1  0  0  0  0
 23 22  1  0  0  0  0
 25 24  1  0  0  0  0
 25 26  2  0  0  0  0
 27 35  1  6  0  0  0
 27 25  1  0  0  0  0
 28 27  1  0  0  0  0
 28 29  1  0  0  0  0
 30 27  1  0  0  0  0
 31 33  1  0  0  0  0
 31 30  1  0  0  0  0
 32 31  2  0  0  0  0
 33 34  1  0  0  0  0
 36 35  1  0  0  0  0
 37 36  1  0  0  0  0
 38 41  1  0  0  0  0
 38 37  1  0  0  0  0
 39 38  1  0  0  0  0
 40 38  1  0  0  0  0
 41 42  1  0  0  0  0
M  END
>  <minimizedAffinity>
-6.78904676

$$$$

 OpenBabel12271914583D

 42 46  0  0  1  0  0  0  0  0999 V2000
    7.6160   46.3580   47.5760 C   0  0  1  0  0  0  0  0  0  0  0  0
    7.8940   45.6350   48.8850 C   0  0  1  0  0  0  0  0  0  0  0  0
    8.9260   44.5910   48.8220 C   0  0  0  0  0  0  0  0  0  0  0  0
    8.6250   43.5760   47.9130 C   0  0  0  0  0  0  0  0  0  0  0  0
    9.5070   42.5010   47.7360 C   0  0  0  0  0  0  0  0  0  0  0  0
    9.4080   41.4070   46.9020 O   0  0  0  0  0  0  0  0  0  0  0  0
   10.4910   40.5160   47.2220 C   0  0  0  0  0  0  0  0  0  0  0  0
   11.3530   41.2720   48.0840 O   0  0  0  0  0  0  0  0  0  0  0  0
   10.6450   42.4170   48.4210 C   0  0  0  0  0  0  0  0  0  0  0  0
   10.9670   43.4140   49.3300 C   0  0  0  0  0  0  0  0  0  0  0  0
   10.0970   44.4990   49.5290 C   0  0  0  0  0  0  0  0  0  0  0  0
   10.6370   45.4480   50.5250 C   0  0  0  0  0  0  0  0  0  0  0  0
   10.5570   46.8150   49.9400 C   0  0  0  0  0  0  0  0  0  0  0  0
    9.2600   47.4670   50.0120 N   0  0  2  0  0  0  0  0  0  0  0  0
    9.2580   48.2260   49.3350 H   0  0  0  0  0  0  0  0  0  0  0  0
    9.1410   48.0800   51.3500 C   0  0  0  0  0  0  0  0  0  0  0  0
    8.1860   47.2320   52.1570 C   0  0  0  0  0  0  0  0  0  0  0  0
    7.5810   46.2250   51.2210 C   0  0  0  0  0  0  0  0  0  0  0  0
    8.0300   46.7100   49.8800 C   0  0  2  0  0  0  0  0  0  0  0  0
    7.0070   47.6750   49.4000 C   0  0  0  0  0  0  0  0  0  0  0  0
    6.7590   47.4800   48.1060 C   0  0  2  0  0  0  0  0  0  0  0  0
    5.8600   48.1570   47.3460 O   0  0  0  0  0  0  0  0  0  0  0  0
    4.6450   47.4800   46.9510 C   0  0  0  0  0  0  0  0  0  0  0  0
    8.8170   46.9590   47.0380 O   0  0  0  0  0  0  0  0  0  0  0  0
    9.0790   46.7420   45.7100 C   0  0  0  0  0  0  0  0  0  0  0  0
    9.7640   45.8690   45.3030 O   0  0  0  0  0  0  0  0  0  0  0  0
    8.4510   47.6890   44.6830 C   0  0  2  0  0  0  0  0  0  0  0  0
    7.0710   47.4350   44.6510 O   0  0  0  0  0  0  0  0  0  0  0  0
    6.8620   46.5630   45.0350 H   0  0  0  0  0  0  0  0  0  0  0  0
    9.1150   47.5490   43.3360 C   0  0  0  0  0  0  0  0  0  0  0  0
    8.2150   47.0630   42.2100 C   0  0  0  0  0  0  0  0  0  0  0  0
    7.8200   45.9400   42.2450 O   0  0  0  0  0  0  0  0  0  0  0  0
    7.8790   47.9180   41.1930 O   0  0  0  0  0  0  0  0  0  0  0  0
    6.6450   48.6740   41.3870 C   0  0  0  0  0  0  0  0  0  0  0  0
    8.6750   49.0920   45.2210 C   0  0  0  0  0  0  0  0  0  0  0  0
    7.5780   50.0940   44.9590 C   0  0  0  0  0  0  0  0  0  0  0  0
    7.9200   51.1780   43.9530 C   0  0  0  0  0  0  0  0  0  0  0  0
    7.2370   52.4620   44.3790 C   0  0  0  0  0  0  0  0  0  0  0  0
    8.2280   53.5650   44.6920 C   0  0  0  0  0  0  0  0  0  0  0  0
    6.2990   52.9480   43.3030 C   0  0  0  0  0  0  0  0  0  0  0  0
    6.4610   52.1860   45.5280 O   0  0  0  0  0  0  0  0  0  0  0  0
    5.6520   51.7620   45.2120 H   0  0  0  0  0  0  0  0  0  0  0  0
  1 24  1  1  0  0  0
  1 21  1  0  0  0  0
  1  2  1  0  0  0  0
  2 19  1  1  0  0  0
  3  2  1  0  0  0  0
  3 11  2  0  0  0  0
  4  3  1  0  0  0  0
  5  4  1  0  0  0  0
  5  9  2  0  0  0  0
  6  7  1  0  0  0  0
  6  5  1  0  0  0  0
  7  8  1  0  0  0  0
  8  9  1  0  0  0  0
  9 10  1  0  0  0  0
 10 11  1  0  0  0  0
 11 12  1  0  0  0  0
 13 14  1  0  0  0  0
 13 12  1  0  0  0  0
 14 19  1  6  0  0  0
 14 16  1  0  0  0  0
 15 14  1  0  0  0  0
 16 17  1  0  0  0  0
 18 17  1  0  0  0  0
 19 20  1  6  0  0  0
 19 18  1  0  0  0  0
 21 22  1  1  0  0  0
 21 20  1  0  0  0  0
 23 22  1  0  0  0  0
 25 24  1  0  0  0  0
 26 25  2  0  0  0  0
 27 30  1  6  0  0  0
 27 35  1  0  0  0  0
 27 25  1  0  0  0  0
 28 27  1  0  0  0  0
 28 29  1  0  0  0  0
 31 32  2  0  0  0  0
 31 30  1  0  0  0  0
 33 34  1  0  0  0  0
 33 31  1  0  0  0  0
 36 35  1  0  0  0  0
 37 38  1  0  0  0  0
 37 36  1  0  0  0  0
 38 39  1  0  0  0  0
 38 41  1  0  0  0  0
 40 38  1  0  0  0  0
 42 41  1  0  0  0  0
M  END
>  <minimizedAffinity>
-6.67820072

$$$$

 OpenBabel12271914583D

 42 46  0  0  1  0  0  0  0  0999 V2000
    9.2000   43.7170   50.5660 C   0  0  1  0  0  0  0  0  0  0  0  0
    9.3710   42.2060   50.6160 C   0  0  1  0  0  0  0  0  0  0  0  0
    9.7380   41.5710   49.3430 C   0  0  0  0  0  0  0  0  0  0  0  0
    8.8030   41.7880   48.3310 C   0  0  0  0  0  0  0  0  0  0  0  0
    9.0040   41.2460   47.0550 C   0  0  0  0  0  0  0  0  0  0  0  0
    8.2190   41.3370   45.9240 O   0  0  0  0  0  0  0  0  0  0  0  0
    8.7840   40.4650   44.9290 C   0  0  0  0  0  0  0  0  0  0  0  0
   10.0650   40.0830   45.4530 O   0  0  0  0  0  0  0  0  0  0  0  0
   10.0800   40.5150   46.7720 C   0  0  0  0  0  0  0  0  0  0  0  0
   11.0250   40.2850   47.7610 C   0  0  0  0  0  0  0  0  0  0  0  0
   10.8430   40.8130   49.0500 C   0  0  0  0  0  0  0  0  0  0  0  0
   11.9690   40.4620   49.9400 C   0  0  0  0  0  0  0  0  0  0  0  0
   12.4300   41.7120   50.6060 C   0  0  0  0  0  0  0  0  0  0  0  0
   11.6510   42.1500   51.7530 N   0  0  2  0  0  0  0  0  0  0  0  0
   11.8670   43.1300   51.9160 H   0  0  0  0  0  0  0  0  0  0  0  0
   12.1280   41.3990   52.9310 C   0  0  0  0  0  0  0  0  0  0  0  0
   11.0810   40.3620   53.2650 C   0  0  0  0  0  0  0  0  0  0  0  0
    9.8850   40.6390   52.4000 C   0  0  0  0  0  0  0  0  0  0  0  0
   10.2130   41.9680   51.7990 C   0  0  2  0  0  0  0  0  0  0  0  0
    9.6990   43.0060   52.7290 C   0  0  0  0  0  0  0  0  0  0  0  0
    9.1190   43.9920   52.0470 C   0  0  2  0  0  0  0  0  0  0  0  0
    8.5140   45.0890   52.5710 O   0  0  0  0  0  0  0  0  0  0  0  0
    9.2050   45.8290   53.6030 C   0  0  0  0  0  0  0  0  0  0  0  0
   10.3960   44.3680   50.0790 O   0  0  0  0  0  0  0  0  0  0  0  0
   10.3120   45.7140   49.8260 C   0  0  0  0  0  0  0  0  0  0  0  0
   10.8340   46.5460   50.4830 O   0  0  0  0  0  0  0  0  0  0  0  0
    9.4880   46.1750   48.6200 C   0  0  2  0  0  0  0  0  0  0  0  0
    9.7170   47.5480   48.4430 O   0  0  0  0  0  0  0  0  0  0  0  0
   10.0820   47.9550   49.2500 H   0  0  0  0  0  0  0  0  0  0  0  0
    8.0300   45.8300   48.7930 C   0  0  0  0  0  0  0  0  0  0  0  0
    7.1380   46.9720   49.2560 C   0  0  0  0  0  0  0  0  0  0  0  0
    6.6310   47.6650   48.4310 O   0  0  0  0  0  0  0  0  0  0  0  0
    6.9370   47.1730   50.5960 O   0  0  0  0  0  0  0  0  0  0  0  0
    7.6340   48.3190   51.1730 C   0  0  0  0  0  0  0  0  0  0  0  0
   10.0530   45.4290   47.4220 C   0  0  0  0  0  0  0  0  0  0  0  0
    9.2330   45.4730   46.1580 C   0  0  0  0  0  0  0  0  0  0  0  0
    9.5600   46.6180   45.2150 C   0  0  0  0  0  0  0  0  0  0  0  0
    8.3170   47.4680   45.0420 C   0  0  0  0  0  0  0  0  0  0  0  0
    8.3190   48.2290   43.7320 C   0  0  0  0  0  0  0  0  0  0  0  0
    7.0760   46.6140   45.1000 C   0  0  0  0  0  0  0  0  0  0  0  0
    8.2570   48.3820   46.1180 O   0  0  0  0  0  0  0  0  0  0  0  0
    7.9140   47.8860   46.8740 H   0  0  0  0  0  0  0  0  0  0  0  0
  1 24  1  1  0  0  0
  1  2  1  0  0  0  0
  1 21  1  0  0  0  0
  2 19  1  1  0  0  0
  3  2  1  0  0  0  0
  4  3  1  0  0  0  0
  5  4  1  0  0  0  0
  6  5  1  0  0  0  0
  7  8  1  0  0  0  0
  7  6  1  0  0  0  0
  8  9  1  0  0  0  0
  9  5  2  0  0  0  0
  9 10  1  0  0  0  0
 10 11  1  0  0  0  0
 11  3  2  0  0  0  0
 11 12  1  0  0  0  0
 12 13  1  0  0  0  0
 13 14  1  0  0  0  0
 14 19  1  6  0  0  0
 14 15  1  0  0  0  0
 14 16  1  0  0  0  0
 16 17  1  0  0  0  0
 18 17  1  0  0  0  0
 19 18  1  1  0  0  0
 19 20  1  0  0  0  0
 21 22  1  1  0  0  0
 21 20  1  0  0  0  0
 22 23  1  0  0  0  0
 25 24  1  0  0  0  0
 25 26  2  0  0  0  0
 27 35  1  6  0  0  0
 27 30  1  0  0  0  0
 27 25  1  0  0  0  0
 28 27  1  0  0  0  0
 28 29  1  0  0  0  0
 30 31  1  0  0  0  0
 31 33  1  0  0  0  0
 32 31  2  0  0  0  0
 33 34  1  0  0  0  0
 36 35  1  0  0  0  0
 37 36  1  0  0  0  0
 38 40  1  0  0  0  0
 38 37  1  0  0  0  0
 38 41  1  0  0  0  0
 39 38  1  0  0  0  0
 41 42  1  0  0  0  0
M  END
>  <minimizedAffinity>
-6.59051943

$$$$

 OpenBabel12271914583D

 42 46  0  0  1  0  0  0  0  0999 V2000
    8.2220   43.3010   41.6000 C   0  0  1  0  0  0  0  0  0  0  0  0
    7.9120   41.8200   41.7590 C   0  0  1  0  0  0  0  0  0  0  0  0
    7.6180   41.3810   43.1300 C   0  0  0  0  0  0  0  0  0  0  0  0
    8.6640   41.6220   44.0200 C   0  0  0  0  0  0  0  0  0  0  0  0
    8.5440   41.2570   45.3680 C   0  0  0  0  0  0  0  0  0  0  0  0
    9.4410   41.4030   46.4050 O   0  0  0  0  0  0  0  0  0  0  0  0
    8.9020   40.7160   47.5480 C   0  0  0  0  0  0  0  0  0  0  0  0
    7.5470   40.4060   47.1910 O   0  0  0  0  0  0  0  0  0  0  0  0
    7.4400   40.6770   45.8340 C   0  0  0  0  0  0  0  0  0  0  0  0
    6.3850   40.4270   44.9680 C   0  0  0  0  0  0  0  0  0  0  0  0
    6.4850   40.7780   43.6120 C   0  0  0  0  0  0  0  0  0  0  0  0
    5.2490   40.4390   42.8750 C   0  0  0  0  0  0  0  0  0  0  0  0
    4.8380   41.6410   42.0980 C   0  0  0  0  0  0  0  0  0  0  0  0
    5.5360   41.8590   40.8410 N   0  0  2  0  0  0  0  0  0  0  0  0
    5.3920   42.8300   40.5740 H   0  0  0  0  0  0  0  0  0  0  0  0
    4.8790   41.0250   39.8150 C   0  0  0  0  0  0  0  0  0  0  0  0
    5.7910   39.8560   39.5250 C   0  0  0  0  0  0  0  0  0  0  0  0
    7.0880   40.1120   40.2410 C   0  0  0  0  0  0  0  0  0  0  0  0
    6.9400   41.5290   40.6940 C   0  0  2  0  0  0  0  0  0  0  0  0
    7.4490   42.3920   39.5970 C   0  0  0  0  0  0  0  0  0  0  0  0
    8.1800   43.3890   40.0960 C   0  0  2  0  0  0  0  0  0  0  0  0
    8.8250   44.3500   39.3850 O   0  0  0  0  0  0  0  0  0  0  0  0
    8.5880   44.4290   37.9610 C   0  0  0  0  0  0  0  0  0  0  0  0
    7.1420   44.1230   42.1030 O   0  0  0  0  0  0  0  0  0  0  0  0
    7.4790   45.1260   42.9770 C   0  0  0  0  0  0  0  0  0  0  0  0
    7.5060   45.0000   44.1510 O   0  0  0  0  0  0  0  0  0  0  0  0
    7.8420   46.4970   42.4010 C   0  0  2  0  0  0  0  0  0  0  0  0
    9.1230   46.4010   41.8350 O   0  0  0  0  0  0  0  0  0  0  0  0
    9.6040   45.6240   42.1740 H   0  0  0  0  0  0  0  0  0  0  0  0
    7.7330   47.5750   43.4500 C   0  0  0  0  0  0  0  0  0  0  0  0
    8.5620   48.8240   43.1930 C   0  0  0  0  0  0  0  0  0  0  0  0
    9.7440   48.7560   43.3220 O   0  0  0  0  0  0  0  0  0  0  0  0
    7.9380   49.9860   42.8220 O   0  0  0  0  0  0  0  0  0  0  0  0
    7.6390   50.9170   43.9070 C   0  0  0  0  0  0  0  0  0  0  0  0
    6.8390   46.7590   41.2900 C   0  0  0  0  0  0  0  0  0  0  0  0
    7.3850   47.3640   40.0210 C   0  0  0  0  0  0  0  0  0  0  0  0
    6.7250   48.6610   39.5870 C   0  0  0  0  0  0  0  0  0  0  0  0
    6.7990   48.7560   38.0770 C   0  0  0  0  0  0  0  0  0  0  0  0
    8.2140   48.9780   37.5830 C   0  0  0  0  0  0  0  0  0  0  0  0
    6.2570   47.5030   37.4370 C   0  0  0  0  0  0  0  0  0  0  0  0
    5.9820   49.8330   37.6640 O   0  0  0  0  0  0  0  0  0  0  0  0
    5.0730   49.5040   37.6820 H   0  0  0  0  0  0  0  0  0  0  0  0
  1  2  1  0  0  0  0
  1 24  1  1  0  0  0
  2 19  1  6  0  0  0
  2  3  1  0  0  0  0
  3 11  2  0  0  0  0
  3  4  1  0  0  0  0
  4  5  1  0  0  0  0
  5  9  2  0  0  0  0
  5  6  1  0  0  0  0
  6  7  1  0  0  0  0
  8  7  1  0  0  0  0
  9  8  1  0  0  0  0
 10  9  1  0  0  0  0
 11 10  1  0  0  0  0
 12 11  1  0  0  0  0
 13 12  1  0  0  0  0
 14 19  1  1  0  0  0
 14 13  1  0  0  0  0
 15 14  1  0  0  0  0
 16 14  1  0  0  0  0
 17 16  1  0  0  0  0
 17 18  1  0  0  0  0
 18 19  1  0  0  0  0
 19 20  1  6  0  0  0
 20 21  1  0  0  0  0
 21 22  1  6  0  0  0
 21  1  1  0  0  0  0
 23 22  1  0  0  0  0
 24 25  1  0  0  0  0
 25 26  2  0  0  0  0
 27 35  1  6  0  0  0
 27 25  1  0  0  0  0
 27 30  1  0  0  0  0
 28 29  1  0  0  0  0
 28 27  1  0  0  0  0
 31 32  2  0  0  0  0
 31 30  1  0  0  0  0
 33 31  1  0  0  0  0
 33 34  1  0  0  0  0
 36 35  1  0  0  0  0
 37 36  1  0  0  0  0
 38 37  1  0  0  0  0
 39 38  1  0  0  0  0
 40 38  1  0  0  0  0
 41 42  1  0  0  0  0
 41 38  1  0  0  0  0
M  END
>  <minimizedAffinity>
-6.48168468

$$$$

 OpenBabel12271914583D

 42 46  0  0  1  0  0  0  0  0999 V2000
    7.4680   45.8770   42.7480 C   0  0  1  0  0  0  0  0  0  0  0  0
    6.9350   45.7500   41.3290 C   0  0  1  0  0  0  0  0  0  0  0  0
    7.0080   46.9720   40.5160 C   0  0  0  0  0  0  0  0  0  0  0  0
    6.3010   48.0410   41.0660 C   0  0  0  0  0  0  0  0  0  0  0  0
    6.2680   49.2790   40.4110 C   0  0  0  0  0  0  0  0  0  0  0  0
    5.6400   50.4530   40.7730 O   0  0  0  0  0  0  0  0  0  0  0  0
    5.7750   51.3750   39.6780 C   0  0  0  0  0  0  0  0  0  0  0  0
    6.7290   50.7670   38.7940 O   0  0  0  0  0  0  0  0  0  0  0  0
    6.9030   49.4700   39.2560 C   0  0  0  0  0  0  0  0  0  0  0  0
    7.6140   48.4230   38.6890 C   0  0  0  0  0  0  0  0  0  0  0  0
    7.6570   47.1710   39.3250 C   0  0  0  0  0  0  0  0  0  0  0  0
    8.4770   46.2070   38.5610 C   0  0  0  0  0  0  0  0  0  0  0  0
    9.4360   45.5750   39.5100 C   0  0  0  0  0  0  0  0  0  0  0  0
    8.9100   44.4920   40.3250 N   0  0  2  0  0  0  0  0  0  0  0  0
    9.5430   44.3630   41.1100 H   0  0  0  0  0  0  0  0  0  0  0  0
    8.9630   43.2580   39.5170 C   0  0  0  0  0  0  0  0  0  0  0  0
    7.5520   42.9330   39.0870 C   0  0  0  0  0  0  0  0  0  0  0  0
    6.6340   43.8720   39.8170 C   0  0  0  0  0  0  0  0  0  0  0  0
    7.5450   44.5150   40.8140 C   0  0  2  0  0  0  0  0  0  0  0  0
    7.5330   43.6610   42.0290 C   0  0  0  0  0  0  0  0  0  0  0  0
    7.4820   44.4170   43.1250 C   0  0  2  0  0  0  0  0  0  0  0  0
    7.4260   43.9760   44.4080 O   0  0  0  0  0  0  0  0  0  0  0  0
    8.3210   42.9150   44.8110 C   0  0  0  0  0  0  0  0  0  0  0  0
    8.8420   46.3300   42.7570 O   0  0  0  0  0  0  0  0  0  0  0  0
    9.4070   46.5790   43.9830 C   0  0  0  0  0  0  0  0  0  0  0  0
   10.0000   45.7770   44.6150 O   0  0  0  0  0  0  0  0  0  0  0  0
    9.2600   47.9830   44.5750 C   0  0  2  0  0  0  0  0  0  0  0  0
   10.5130   48.3740   45.0730 O   0  0  0  0  0  0  0  0  0  0  0  0
   11.0980   47.6050   45.2050 H   0  0  0  0  0  0  0  0  0  0  0  0
    8.1670   48.0250   45.6140 C   0  0  0  0  0  0  0  0  0  0  0  0
    8.4440   47.2420   46.8880 C   0  0  0  0  0  0  0  0  0  0  0  0
    7.6240   46.4650   47.2650 O   0  0  0  0  0  0  0  0  0  0  0  0
    9.6180   47.4430   47.5650 O   0  0  0  0  0  0  0  0  0  0  0  0
    9.5840   47.1390   48.9930 C   0  0  0  0  0  0  0  0  0  0  0  0
    8.8950   48.8900   43.4110 C   0  0  0  0  0  0  0  0  0  0  0  0
    7.8350   49.9280   43.6770 C   0  0  0  0  0  0  0  0  0  0  0  0
    8.0800   51.2810   43.0320 C   0  0  0  0  0  0  0  0  0  0  0  0
    7.3080   52.3300   43.8070 C   0  0  0  0  0  0  0  0  0  0  0  0
    6.9120   51.8510   45.1880 C   0  0  0  0  0  0  0  0  0  0  0  0
    8.1220   53.5920   43.9500 C   0  0  0  0  0  0  0  0  0  0  0  0
    6.1460   52.6540   43.0700 O   0  0  0  0  0  0  0  0  0  0  0  0
    6.4310   53.2590   42.3710 H   0  0  0  0  0  0  0  0  0  0  0  0
  1 24  1  6  0  0  0
  1 21  1  0  0  0  0
  2 19  1  6  0  0  0
  2  1  1  0  0  0  0
  3  4  1  0  0  0  0
  3  2  1  0  0  0  0
  5  6  1  0  0  0  0
  5  4  1  0  0  0  0
  7  6  1  0  0  0  0
  8  9  1  0  0  0  0
  8  7  1  0  0  0  0
  9  5  2  0  0  0  0
 10  9  1  0  0  0  0
 10 11  1  0  0  0  0
 11  3  2  0  0  0  0
 12 11  1  0  0  0  0
 12 13  1  0  0  0  0
 13 14  1  0  0  0  0
 14 19  1  1  0  0  0
 14 15  1  0  0  0  0
 16 14  1  0  0  0  0
 17 16  1  0  0  0  0
 17 18  1  0  0  0  0
 19 18  1  6  0  0  0
 19 20  1  0  0  0  0
 20 21  1  0  0  0  0
 21 22  1  6  0  0  0
 22 23  1  0  0  0  0
 24 25  1  0  0  0  0
 25 27  1  0  0  0  0
 25 26  2  0  0  0  0
 27 35  1  6  0  0  0
 27 28  1  0  0  0  0
 27 30  1  0  0  0  0
 28 29  1  0  0  0  0
 30 31  1  0  0  0  0
 31 32  2  0  0  0  0
 31 33  1  0  0  0  0
 33 34  1  0  0  0  0
 35 36  1  0  0  0  0
 37 36  1  0  0  0  0
 37 38  1  0  0  0  0
 38 40  1  0  0  0  0
 38 39  1  0  0  0  0
 41 38  1  0  0  0  0
 42 41  1  0  0  0  0
M  END
>  <minimizedAffinity>
-6.37344408

$$$$
