
 OpenBabel12271915023D

 42 46  0  0  1  0  0  0  0  0999 V2000
    8.2230   47.2550   45.9280 C   0  0  1  0  0  0  0  0  0  0  0  0
    7.5270   47.5520   44.5010 C   0  0  1  0  0  0  0  0  0  0  0  0
    7.4610   49.0030   43.9410 C   0  0  0  0  0  0  0  0  0  0  0  0
    7.9570   50.0670   44.6830 C   0  0  0  0  0  0  0  0  0  0  0  0
    7.9180   51.3350   44.1610 C   0  0  0  0  0  0  0  0  0  0  0  0
    8.3620   52.4550   44.7830 O   0  0  0  0  0  0  0  0  0  0  0  0
    8.3730   53.4160   43.6730 C   0  0  0  0  0  0  0  0  0  0  0  0
    7.4740   52.9000   42.6160 O   0  0  0  0  0  0  0  0  0  0  0  0
    7.4200   51.5810   42.9420 C   0  0  0  0  0  0  0  0  0  0  0  0
    6.9210   50.5780   42.1660 C   0  0  0  0  0  0  0  0  0  0  0  0
    6.9350   49.2130   42.6800 C   0  0  0  0  0  0  0  0  0  0  0  0
    6.4120   48.2340   41.6730 C   0  0  0  0  0  0  0  0  0  0  0  0
    6.9790   46.9280   41.7970 C   0  0  0  0  0  0  0  0  0  0  0  0
    8.4590   47.0470   42.2070 N   0  0  2  0  0  0  0  0  0  0  0  0
    8.7940   48.0620   42.0210 H   0  0  0  0  0  0  0  0  0  0  0  0
    9.2450   46.0090   41.6300 C   0  0  0  0  0  0  0  0  0  0  0  0
    8.8010   44.7910   42.4250 C   0  0  0  0  0  0  0  0  0  0  0  0
    8.3400   45.2800   43.7730 C   0  0  0  0  0  0  0  0  0  0  0  0
    8.5520   46.8200   43.7130 C   0  0  2  0  0  0  0  0  0  0  0  0
    9.8490   47.1670   44.2750 C   0  0  0  0  0  0  0  0  0  0  0  0
    9.6800   47.4860   45.5460 C   0  0  2  0  0  0  0  0  0  0  0  0
   10.5670   47.8990   46.4820 O   0  0  0  0  0  0  0  0  0  0  0  0
   11.2010   46.8270   47.2960 C   0  0  0  0  0  0  0  0  0  0  0  0
    7.6680   48.0330   47.0750 O   0  0  0  0  0  0  0  0  0  0  0  0
    6.8260   47.2210   47.7470 C   0  0  0  0  0  0  0  0  0  0  0  0
    5.6620   46.9940   47.5940 O   0  0  0  0  0  0  0  0  0  0  0  0
    7.5430   46.5560   48.9900 C   0  0  2  0  0  0  0  0  0  0  0  0
    6.4280   46.2780   49.9750 O   0  0  0  0  0  0  0  0  0  0  0  0
    6.1660   47.1230   50.3390 H   0  0  0  0  0  0  0  0  0  0  0  0
    8.4550   47.4260   49.7670 C   0  0  0  0  0  0  0  0  0  0  0  0
    7.7940   47.8850   51.1080 C   0  0  0  0  0  0  0  0  0  0  0  0
    6.9180   48.7940   51.0490 O   0  0  0  0  0  0  0  0  0  0  0  0
    8.2680   47.2610   52.1580 O   0  0  0  0  0  0  0  0  0  0  0  0
    8.9800   48.1180   53.1960 C   0  0  0  0  0  0  0  0  0  0  0  0
    8.2700   45.2470   48.7010 C   0  0  0  0  0  0  0  0  0  0  0  0
    9.2500   44.7210   49.7510 C   0  0  0  0  0  0  0  0  0  0  0  0
    8.8210   43.3830   50.3690 C   0  0  0  0  0  0  0  0  0  0  0  0
    8.4960   43.5390   51.8450 C   0  0  0  0  0  0  0  0  0  0  0  0
    8.1240   42.1790   52.4040 C   0  0  0  0  0  0  0  0  0  0  0  0
    9.6670   44.1110   52.6590 C   0  0  0  0  0  0  0  0  0  0  0  0
    7.3400   44.4230   52.0190 O   0  0  0  0  0  0  0  0  0  0  0  0
    6.5890   43.9180   51.8290 H   0  0  0  0  0  0  0  0  0  0  0  0
  1 24  1  1  0  0  0
  2 19  1  6  0  0  0
  2  1  1  0  0  0  0
  3  2  1  0  0  0  0
  3  4  2  0  0  0  0
  5  4  1  0  0  0  0
  5  6  1  0  0  0  0
  7  6  1  0  0  0  0
  8  9  1  0  0  0  0
  8  7  1  0  0  0  0
  9  5  2  0  0  0  0
 10 11  2  0  0  0  0
 10  9  1  0  0  0  0
 11  3  1  0  0  0  0
 12 13  1  0  0  0  0
 12 11  1  0  0  0  0
 13 14  1  0  0  0  0
 14 19  1  1  0  0  0
 15 14  1  0  0  0  0
 16 14  1  0  0  0  0
 16 17  1  0  0  0  0
 17 18  1  0  0  0  0
 19 18  1  1  0  0  0
 19 20  1  0  0  0  0
 20 21  1  0  0  0  0
 21  1  1  0  0  0  0
 21 22  1  1  0  0  0
 22 23  1  0  0  0  0
 24 25  1  0  0  0  0
 25 27  1  0  0  0  0
 26 25  2  0  0  0  0
 27 35  1  6  0  0  0
 27 30  1  0  0  0  0
 27 28  1  0  0  0  0
 28 29  1  0  0  0  0
 30 31  1  0  0  0  0
 31 33  1  0  0  0  0
 32 31  2  0  0  0  0
 33 34  1  0  0  0  0
 35 36  1  0  0  0  0
 36 37  1  0  0  0  0
 37 38  1  0  0  0  0
 38 41  1  0  0  0  0
 38 39  1  0  0  0  0
 38 40  1  0  0  0  0
 42 41  1  0  0  0  0
M  END
>  <minimizedAffinity>
-8.25024986

$$$$

 OpenBabel12271915023D

 42 46  0  0  1  0  0  0  0  0999 V2000
    9.2320   46.8400   46.4640 C   0  0  1  0  0  0  0  0  0  0  0  0
    9.4620   46.5330   44.8950 C   0  0  1  0  0  0  0  0  0  0  0  0
    9.2640   45.0940   44.3350 C   0  0  0  0  0  0  0  0  0  0  0  0
    8.9340   44.0470   45.1850 C   0  0  0  0  0  0  0  0  0  0  0  0
    8.7340   42.7910   44.6690 C   0  0  0  0  0  0  0  0  0  0  0  0
    8.4140   41.6870   45.3900 O   0  0  0  0  0  0  0  0  0  0  0  0
    8.0170   40.7550   44.3270 C   0  0  0  0  0  0  0  0  0  0  0  0
    8.6040   41.2370   43.0560 O   0  0  0  0  0  0  0  0  0  0  0  0
    8.8390   42.5420   43.3580 C   0  0  0  0  0  0  0  0  0  0  0  0
    9.1580   43.5290   42.4740 C   0  0  0  0  0  0  0  0  0  0  0  0
    9.3860   44.8790   42.9750 C   0  0  0  0  0  0  0  0  0  0  0  0
    9.6600   45.8460   41.8630 C   0  0  0  0  0  0  0  0  0  0  0  0
    9.2430   47.1830   42.1510 C   0  0  0  0  0  0  0  0  0  0  0  0
    7.9410   47.1480   42.9740 N   0  0  2  0  0  0  0  0  0  0  0  0
    7.4990   46.1620   42.8900 H   0  0  0  0  0  0  0  0  0  0  0  0
    7.0930   48.2480   42.6540 C   0  0  0  0  0  0  0  0  0  0  0  0
    7.8310   49.4170   43.2910 C   0  0  0  0  0  0  0  0  0  0  0  0
    8.6290   48.8670   44.4440 C   0  0  0  0  0  0  0  0  0  0  0  0
    8.3050   47.3460   44.4430 C   0  0  2  0  0  0  0  0  0  0  0  0
    7.2060   47.0690   45.3560 C   0  0  0  0  0  0  0  0  0  0  0  0
    7.7150   46.7110   46.5220 C   0  0  2  0  0  0  0  0  0  0  0  0
    7.1120   46.3330   47.6740 O   0  0  0  0  0  0  0  0  0  0  0  0
    6.1320   47.2980   48.2420 C   0  0  0  0  0  0  0  0  0  0  0  0
   10.0420   46.0010   47.3970 O   0  0  0  0  0  0  0  0  0  0  0  0
   10.5460   46.8190   48.3440 C   0  0  0  0  0  0  0  0  0  0  0  0
   11.3720   47.6820   48.2800 O   0  0  0  0  0  0  0  0  0  0  0  0
    9.9730   46.4620   49.7740 C   0  0  2  0  0  0  0  0  0  0  0  0
   11.1960   46.2620   50.6420 O   0  0  0  0  0  0  0  0  0  0  0  0
   11.5840   45.4270   50.3820 H   0  0  0  0  0  0  0  0  0  0  0  0
    9.2700   45.1640   49.8960 C   0  0  0  0  0  0  0  0  0  0  0  0
   10.1140   44.1400   50.7230 C   0  0  0  0  0  0  0  0  0  0  0  0
   10.8830   43.3650   50.0870 O   0  0  0  0  0  0  0  0  0  0  0  0
    9.8890   44.2050   52.0120 O   0  0  0  0  0  0  0  0  0  0  0  0
    8.5410   43.6860   52.4940 C   0  0  0  0  0  0  0  0  0  0  0  0
    9.0970   47.5360   50.4120 C   0  0  0  0  0  0  0  0  0  0  0  0
    7.8890   47.0830   51.2350 C   0  0  0  0  0  0  0  0  0  0  0  0
    7.0150   48.2470   51.7250 C   0  0  0  0  0  0  0  0  0  0  0  0
    6.0070   47.7770   52.7590 C   0  0  0  0  0  0  0  0  0  0  0  0
    6.7610   47.2540   53.9660 C   0  0  0  0  0  0  0  0  0  0  0  0
    5.0480   48.8900   53.2110 C   0  0  0  0  0  0  0  0  0  0  0  0
    5.2060   46.6720   52.2210 O   0  0  0  0  0  0  0  0  0  0  0  0
    5.7320   45.9130   52.2770 H   0  0  0  0  0  0  0  0  0  0  0  0
  1 21  1  0  0  0  0
  1 24  1  1  0  0  0
  2 19  1  6  0  0  0
  2  1  1  0  0  0  0
  3  2  1  0  0  0  0
  3  4  2  0  0  0  0
  5  4  1  0  0  0  0
  5  6  1  0  0  0  0
  7  6  1  0  0  0  0
  8  9  1  0  0  0  0
  8  7  1  0  0  0  0
  9  5  2  0  0  0  0
 10 11  2  0  0  0  0
 10  9  1  0  0  0  0
 11  3  1  0  0  0  0
 12 13  1  0  0  0  0
 12 11  1  0  0  0  0
 13 14  1  0  0  0  0
 14 19  1  1  0  0  0
 15 14  1  0  0  0  0
 16 14  1  0  0  0  0
 16 17  1  0  0  0  0
 17 18  1  0  0  0  0
 19 18  1  1  0  0  0
 19 20  1  0  0  0  0
 20 21  1  0  0  0  0
 21 22  1  1  0  0  0
 22 23  1  0  0  0  0
 24 25  1  0  0  0  0
 25 27  1  0  0  0  0
 26 25  2  0  0  0  0
 27 30  1  6  0  0  0
 27 35  1  0  0  0  0
 27 28  1  0  0  0  0
 29 28  1  0  0  0  0
 30 31  1  0  0  0  0
 31 33  1  0  0  0  0
 32 31  2  0  0  0  0
 33 34  1  0  0  0  0
 35 36  1  0  0  0  0
 36 37  1  0  0  0  0
 37 38  1  0  0  0  0
 38 40  1  0  0  0  0
 38 39  1  0  0  0  0
 41 42  1  0  0  0  0
 41 38  1  0  0  0  0
M  END
>  <minimizedAffinity>
-7.86365604

$$$$

 OpenBabel12271915023D

 42 46  0  0  1  0  0  0  0  0999 V2000
    8.4610   47.0140   48.5110 C   0  0  1  0  0  0  0  0  0  0  0  0
    8.1660   46.1010   49.8100 C   0  0  1  0  0  0  0  0  0  0  0  0
    8.8100   44.6900   49.9460 C   0  0  0  0  0  0  0  0  0  0  0  0
    9.6080   44.1800   48.9310 C   0  0  0  0  0  0  0  0  0  0  0  0
   10.1920   42.9470   49.0820 C   0  0  0  0  0  0  0  0  0  0  0  0
   10.9850   42.3360   48.1670 O   0  0  0  0  0  0  0  0  0  0  0  0
   11.5630   41.2480   48.9670 C   0  0  0  0  0  0  0  0  0  0  0  0
   10.6840   41.0300   50.1380 O   0  0  0  0  0  0  0  0  0  0  0  0
   10.0230   42.2170   50.1910 C   0  0  0  0  0  0  0  0  0  0  0  0
    9.2530   42.6660   51.2220 C   0  0  0  0  0  0  0  0  0  0  0  0
    8.6060   43.9680   51.1070 C   0  0  0  0  0  0  0  0  0  0  0  0
    7.8570   44.3290   52.3540 C   0  0  0  0  0  0  0  0  0  0  0  0
    7.7820   45.7370   52.5880 C   0  0  0  0  0  0  0  0  0  0  0  0
    9.0960   46.4030   52.1390 N   0  0  2  0  0  0  0  0  0  0  0  0
    9.8580   45.6390   52.0310 H   0  0  0  0  0  0  0  0  0  0  0  0
    9.4300   47.5120   52.9700 C   0  0  0  0  0  0  0  0  0  0  0  0
    8.3980   48.5480   52.5500 C   0  0  0  0  0  0  0  0  0  0  0  0
    8.0120   48.2440   51.1260 C   0  0  0  0  0  0  0  0  0  0  0  0
    8.8730   47.0030   50.7540 C   0  0  2  0  0  0  0  0  0  0  0  0
   10.1020   47.4270   50.0980 C   0  0  0  0  0  0  0  0  0  0  0  0
    9.9130   47.3830   48.7920 C   0  0  2  0  0  0  0  0  0  0  0  0
   10.7520   47.6540   47.7640 O   0  0  0  0  0  0  0  0  0  0  0  0
   11.4110   46.4790   47.1330 C   0  0  0  0  0  0  0  0  0  0  0  0
    8.1430   46.3700   47.2010 O   0  0  0  0  0  0  0  0  0  0  0  0
    7.1200   47.0560   46.6500 C   0  0  0  0  0  0  0  0  0  0  0  0
    5.9690   47.1410   46.9650 O   0  0  0  0  0  0  0  0  0  0  0  0
    7.5650   47.7740   45.3130 C   0  0  2  0  0  0  0  0  0  0  0  0
    6.6640   47.1940   44.2450 O   0  0  0  0  0  0  0  0  0  0  0  0
    6.9660   46.3000   44.0870 H   0  0  0  0  0  0  0  0  0  0  0  0
    8.9200   47.4480   44.8110 C   0  0  0  0  0  0  0  0  0  0  0  0
    8.8510   46.4690   43.5930 C   0  0  0  0  0  0  0  0  0  0  0  0
    8.7510   45.2340   43.8380 O   0  0  0  0  0  0  0  0  0  0  0  0
    8.9320   47.0780   42.4350 O   0  0  0  0  0  0  0  0  0  0  0  0
    8.4240   46.3080   41.2240 C   0  0  0  0  0  0  0  0  0  0  0  0
    7.4110   49.2920   45.3060 C   0  0  0  0  0  0  0  0  0  0  0  0
    8.2540   50.0950   44.3130 C   0  0  0  0  0  0  0  0  0  0  0  0
    7.4150   50.9630   43.3640 C   0  0  0  0  0  0  0  0  0  0  0  0
    7.3340   52.3970   43.8600 C   0  0  0  0  0  0  0  0  0  0  0  0
    7.4670   53.3280   42.6700 C   0  0  0  0  0  0  0  0  0  0  0  0
    6.0180   52.7050   44.5920 C   0  0  0  0  0  0  0  0  0  0  0  0
    8.4450   52.6810   44.7740 O   0  0  0  0  0  0  0  0  0  0  0  0
    9.1910   52.8250   44.2470 H   0  0  0  0  0  0  0  0  0  0  0  0
  1 24  1  6  0  0  0
  1 21  1  0  0  0  0
  1  2  1  0  0  0  0
  2  3  1  0  0  0  0
  2 19  1  1  0  0  0
  3 11  2  0  0  0  0
  4  5  2  0  0  0  0
  4  3  1  0  0  0  0
  5  9  1  0  0  0  0
  6  7  1  0  0  0  0
  6  5  1  0  0  0  0
  7  8  1  0  0  0  0
  8  9  1  0  0  0  0
  9 10  2  0  0  0  0
 11 10  1  0  0  0  0
 11 12  1  0  0  0  0
 12 13  1  0  0  0  0
 14 19  1  6  0  0  0
 14 13  1  0  0  0  0
 14 16  1  0  0  0  0
 15 14  1  0  0  0  0
 17 16  1  0  0  0  0
 18 17  1  0  0  0  0
 19 20  1  6  0  0  0
 19 18  1  0  0  0  0
 21 22  1  1  0  0  0
 21 20  1  0  0  0  0
 23 22  1  0  0  0  0
 25 26  2  0  0  0  0
 25 24  1  0  0  0  0
 27 30  1  6  0  0  0
 27 25  1  0  0  0  0
 28 27  1  0  0  0  0
 29 28  1  0  0  0  0
 31 32  2  0  0  0  0
 31 30  1  0  0  0  0
 33 31  1  0  0  0  0
 34 33  1  0  0  0  0
 35 27  1  0  0  0  0
 36 35  1  0  0  0  0
 37 38  1  0  0  0  0
 37 36  1  0  0  0  0
 38 40  1  0  0  0  0
 38 41  1  0  0  0  0
 39 38  1  0  0  0  0
 42 41  1  0  0  0  0
M  END
>  <minimizedAffinity>
-7.86075068

$$$$

 OpenBabel12271915023D

 42 46  0  0  1  0  0  0  0  0999 V2000
    8.8610   47.0590   44.6180 C   0  0  1  0  0  0  0  0  0  0  0  0
    8.8530   46.6290   43.0610 C   0  0  1  0  0  0  0  0  0  0  0  0
    8.6680   45.1380   42.6540 C   0  0  0  0  0  0  0  0  0  0  0  0
    8.5570   44.1520   43.6260 C   0  0  0  0  0  0  0  0  0  0  0  0
    8.3640   42.8460   43.2500 C   0  0  0  0  0  0  0  0  0  0  0  0
    8.2460   41.7940   44.0960 O   0  0  0  0  0  0  0  0  0  0  0  0
    7.7470   40.7510   43.1910 C   0  0  0  0  0  0  0  0  0  0  0  0
    8.0820   41.1530   41.8060 O   0  0  0  0  0  0  0  0  0  0  0  0
    8.2710   42.4900   41.9620 C   0  0  0  0  0  0  0  0  0  0  0  0
    8.3700   43.4130   40.9640 C   0  0  0  0  0  0  0  0  0  0  0  0
    8.5810   44.8130   41.3140 C   0  0  0  0  0  0  0  0  0  0  0  0
    8.5990   45.6920   40.1010 C   0  0  0  0  0  0  0  0  0  0  0  0
    8.1420   47.0230   40.3520 C   0  0  0  0  0  0  0  0  0  0  0  0
    6.9980   46.9870   41.3830 N   0  0  2  0  0  0  0  0  0  0  0  0
    6.6180   45.9730   41.4510 H   0  0  0  0  0  0  0  0  0  0  0  0
    6.0340   48.0040   41.1280 C   0  0  0  0  0  0  0  0  0  0  0  0
    6.7810   49.2640   41.5390 C   0  0  0  0  0  0  0  0  0  0  0  0
    7.7940   48.8640   42.5790 C   0  0  0  0  0  0  0  0  0  0  0  0
    7.5830   47.3330   42.7490 C   0  0  2  0  0  0  0  0  0  0  0  0
    6.6700   47.0750   43.8550 C   0  0  0  0  0  0  0  0  0  0  0  0
    7.3870   46.8490   44.9410 C   0  0  2  0  0  0  0  0  0  0  0  0
    7.0100   46.5400   46.2040 O   0  0  0  0  0  0  0  0  0  0  0  0
    5.8700   47.3240   46.7530 C   0  0  0  0  0  0  0  0  0  0  0  0
    9.8710   46.3520   45.4620 O   0  0  0  0  0  0  0  0  0  0  0  0
   10.4240   47.2680   46.2840 C   0  0  0  0  0  0  0  0  0  0  0  0
   11.0700   48.2480   46.0500 O   0  0  0  0  0  0  0  0  0  0  0  0
   10.2270   46.8690   47.8020 C   0  0  2  0  0  0  0  0  0  0  0  0
    8.7940   47.2430   48.1150 O   0  0  0  0  0  0  0  0  0  0  0  0
    8.7640   48.1980   48.1670 H   0  0  0  0  0  0  0  0  0  0  0  0
   10.9940   47.6570   48.7940 C   0  0  0  0  0  0  0  0  0  0  0  0
   10.5080   47.3580   50.2510 C   0  0  0  0  0  0  0  0  0  0  0  0
   11.2540   46.6510   50.9840 O   0  0  0  0  0  0  0  0  0  0  0  0
    9.3370   47.8800   50.5220 O   0  0  0  0  0  0  0  0  0  0  0  0
    9.0460   48.1740   51.9870 C   0  0  0  0  0  0  0  0  0  0  0  0
   10.4220   45.3900   48.1180 C   0  0  0  0  0  0  0  0  0  0  0  0
    9.1920   44.4800   48.0870 C   0  0  0  0  0  0  0  0  0  0  0  0
    9.3120   43.3280   47.0780 C   0  0  0  0  0  0  0  0  0  0  0  0
    9.2610   41.9810   47.7770 C   0  0  0  0  0  0  0  0  0  0  0  0
   10.6770   41.5590   48.1190 C   0  0  0  0  0  0  0  0  0  0  0  0
    8.4210   42.0040   49.0640 C   0  0  0  0  0  0  0  0  0  0  0  0
    8.6990   40.9650   46.8800 O   0  0  0  0  0  0  0  0  0  0  0  0
    9.3750   40.7230   46.2980 H   0  0  0  0  0  0  0  0  0  0  0  0
  1 21  1  0  0  0  0
  1 24  1  1  0  0  0
  2 19  1  6  0  0  0
  2  1  1  0  0  0  0
  3  2  1  0  0  0  0
  3  4  2  0  0  0  0
  5  4  1  0  0  0  0
  5  6  1  0  0  0  0
  7  6  1  0  0  0  0
  8  9  1  0  0  0  0
  8  7  1  0  0  0  0
  9  5  2  0  0  0  0
 10 11  2  0  0  0  0
 10  9  1  0  0  0  0
 11  3  1  0  0  0  0
 12 13  1  0  0  0  0
 12 11  1  0  0  0  0
 13 14  1  0  0  0  0
 14 15  1  0  0  0  0
 14 19  1  1  0  0  0
 16 14  1  0  0  0  0
 16 17  1  0  0  0  0
 17 18  1  0  0  0  0
 19 18  1  6  0  0  0
 19 20  1  0  0  0  0
 20 21  1  0  0  0  0
 21 22  1  1  0  0  0
 22 23  1  0  0  0  0
 24 25  1  0  0  0  0
 25 27  1  0  0  0  0
 26 25  2  0  0  0  0
 27 28  1  0  0  0  0
 27 35  1  1  0  0  0
 27 30  1  0  0  0  0
 28 29  1  0  0  0  0
 30 31  1  0  0  0  0
 31 33  1  0  0  0  0
 31 32  2  0  0  0  0
 33 34  1  0  0  0  0
 36 35  1  0  0  0  0
 37 38  1  0  0  0  0
 37 36  1  0  0  0  0
 38 39  1  0  0  0  0
 38 40  1  0  0  0  0
 41 38  1  0  0  0  0
 42 41  1  0  0  0  0
M  END
>  <minimizedAffinity>
-7.8112421

$$$$

 OpenBabel12271915023D

 42 46  0  0  1  0  0  0  0  0999 V2000
    8.6130   46.8970   44.5310 C   0  0  1  0  0  0  0  0  0  0  0  0
    8.4990   46.5190   42.9640 C   0  0  1  0  0  0  0  0  0  0  0  0
    8.0440   45.0960   42.5260 C   0  0  0  0  0  0  0  0  0  0  0  0
    7.7760   44.1190   43.4750 C   0  0  0  0  0  0  0  0  0  0  0  0
    7.3460   42.8800   43.0720 C   0  0  0  0  0  0  0  0  0  0  0  0
    7.0580   41.8420   43.8950 O   0  0  0  0  0  0  0  0  0  0  0  0
    6.3640   40.9300   42.9760 C   0  0  0  0  0  0  0  0  0  0  0  0
    6.7400   41.3050   41.5940 O   0  0  0  0  0  0  0  0  0  0  0  0
    7.1670   42.5820   41.7780 C   0  0  0  0  0  0  0  0  0  0  0  0
    7.4110   43.5010   40.8010 C   0  0  0  0  0  0  0  0  0  0  0  0
    7.8750   44.8300   41.1800 C   0  0  0  0  0  0  0  0  0  0  0  0
    8.0280   45.7260   39.9890 C   0  0  0  0  0  0  0  0  0  0  0  0
    7.8200   47.1100   40.2830 C   0  0  0  0  0  0  0  0  0  0  0  0
    6.7080   47.2480   41.3390 N   0  0  2  0  0  0  0  0  0  0  0  0
    6.1540   46.3170   41.3910 H   0  0  0  0  0  0  0  0  0  0  0  0
    5.9360   48.4280   41.1310 C   0  0  0  0  0  0  0  0  0  0  0  0
    6.9040   49.5230   41.5550 C   0  0  0  0  0  0  0  0  0  0  0  0
    7.8480   48.9200   42.5620 C   0  0  0  0  0  0  0  0  0  0  0  0
    7.3700   47.4460   42.7000 C   0  0  2  0  0  0  0  0  0  0  0  0
    6.4460   47.3230   43.8190 C   0  0  0  0  0  0  0  0  0  0  0  0
    7.1310   46.9430   44.8830 C   0  0  2  0  0  0  0  0  0  0  0  0
    6.7280   46.6710   46.1460 O   0  0  0  0  0  0  0  0  0  0  0  0
    6.3260   47.8450   46.9680 C   0  0  0  0  0  0  0  0  0  0  0  0
    9.4960   45.9980   45.3340 O   0  0  0  0  0  0  0  0  0  0  0  0
   10.1310   46.7630   46.2450 C   0  0  0  0  0  0  0  0  0  0  0  0
   10.8640   47.7000   46.1130 O   0  0  0  0  0  0  0  0  0  0  0  0
    9.9000   46.2190   47.7120 C   0  0  2  0  0  0  0  0  0  0  0  0
   11.2350   45.6380   48.1240 O   0  0  0  0  0  0  0  0  0  0  0  0
   11.3420   44.8220   47.6360 H   0  0  0  0  0  0  0  0  0  0  0  0
    8.9850   45.0620   47.8480 C   0  0  0  0  0  0  0  0  0  0  0  0
    9.6960   43.8580   48.5500 C   0  0  0  0  0  0  0  0  0  0  0  0
   10.3900   43.0870   47.8290 O   0  0  0  0  0  0  0  0  0  0  0  0
    9.4500   43.7910   49.8350 O   0  0  0  0  0  0  0  0  0  0  0  0
   10.6140   43.3900   50.7300 C   0  0  0  0  0  0  0  0  0  0  0  0
    9.4910   47.2680   48.7400 C   0  0  0  0  0  0  0  0  0  0  0  0
   10.1520   47.2210   50.1180 C   0  0  0  0  0  0  0  0  0  0  0  0
    9.1600   46.9620   51.2620 C   0  0  0  0  0  0  0  0  0  0  0  0
    8.9860   48.1980   52.1270 C   0  0  0  0  0  0  0  0  0  0  0  0
    8.2080   47.8110   53.3700 C   0  0  0  0  0  0  0  0  0  0  0  0
   10.3230   48.8280   52.5490 C   0  0  0  0  0  0  0  0  0  0  0  0
    8.2050   49.2120   51.4110 O   0  0  0  0  0  0  0  0  0  0  0  0
    7.3200   48.9540   51.4690 H   0  0  0  0  0  0  0  0  0  0  0  0
  1 21  1  0  0  0  0
  1 24  1  1  0  0  0
  2 19  1  6  0  0  0
  2  1  1  0  0  0  0
  3  2  1  0  0  0  0
  3  4  2  0  0  0  0
  5  4  1  0  0  0  0
  5  6  1  0  0  0  0
  7  6  1  0  0  0  0
  8  9  1  0  0  0  0
  8  7  1  0  0  0  0
  9  5  2  0  0  0  0
 10 11  2  0  0  0  0
 10  9  1  0  0  0  0
 11  3  1  0  0  0  0
 12 13  1  0  0  0  0
 12 11  1  0  0  0  0
 13 14  1  0  0  0  0
 14 15  1  0  0  0  0
 14 19  1  1  0  0  0
 16 14  1  0  0  0  0
 16 17  1  0  0  0  0
 17 18  1  0  0  0  0
 19 18  1  1  0  0  0
 19 20  1  0  0  0  0
 20 21  1  0  0  0  0
 21 22  1  1  0  0  0
 22 23  1  0  0  0  0
 24 25  1  0  0  0  0
 25 27  1  0  0  0  0
 26 25  2  0  0  0  0
 27 30  1  6  0  0  0
 27 28  1  0  0  0  0
 27 35  1  0  0  0  0
 29 28  1  0  0  0  0
 30 31  1  0  0  0  0
 31 33  1  0  0  0  0
 32 31  2  0  0  0  0
 33 34  1  0  0  0  0
 35 36  1  0  0  0  0
 36 37  1  0  0  0  0
 37 38  1  0  0  0  0
 38 40  1  0  0  0  0
 38 39  1  0  0  0  0
 41 42  1  0  0  0  0
 41 38  1  0  0  0  0
M  END
>  <minimizedAffinity>
-7.57542992

$$$$

 OpenBabel12271915023D

 42 46  0  0  1  0  0  0  0  0999 V2000
    9.5810   46.8940   49.5360 C   0  0  1  0  0  0  0  0  0  0  0  0
    8.6530   46.1310   50.6150 C   0  0  1  0  0  0  0  0  0  0  0  0
    9.2230   44.9490   51.4520 C   0  0  0  0  0  0  0  0  0  0  0  0
   10.5220   44.5040   51.2480 C   0  0  0  0  0  0  0  0  0  0  0  0
   11.0180   43.4810   52.0160 C   0  0  0  0  0  0  0  0  0  0  0  0
   12.2630   42.9530   51.9130 O   0  0  0  0  0  0  0  0  0  0  0  0
   12.3420   42.1590   53.1460 C   0  0  0  0  0  0  0  0  0  0  0  0
   10.9610   41.9080   53.6140 O   0  0  0  0  0  0  0  0  0  0  0  0
   10.2840   42.8970   52.9730 C   0  0  0  0  0  0  0  0  0  0  0  0
    9.0040   43.2920   53.2210 C   0  0  0  0  0  0  0  0  0  0  0  0
    8.4310   44.3720   52.4270 C   0  0  0  0  0  0  0  0  0  0  0  0
    7.0440   44.7180   52.8780 C   0  0  0  0  0  0  0  0  0  0  0  0
    6.6950   46.0870   52.6560 C   0  0  0  0  0  0  0  0  0  0  0  0
    7.9320   46.9750   52.8840 N   0  0  2  0  0  0  0  0  0  0  0  0
    8.6760   46.4080   53.4320 H   0  0  0  0  0  0  0  0  0  0  0  0
    7.5710   48.2390   53.4370 C   0  0  0  0  0  0  0  0  0  0  0  0
    6.9090   48.9280   52.2540 C   0  0  0  0  0  0  0  0  0  0  0  0
    7.5050   48.3400   51.0020 C   0  0  0  0  0  0  0  0  0  0  0  0
    8.5380   47.3010   51.5220 C   0  0  2  0  0  0  0  0  0  0  0  0
    9.8590   47.9080   51.6040 C   0  0  0  0  0  0  0  0  0  0  0  0
   10.5120   47.6340   50.4890 C   0  0  2  0  0  0  0  0  0  0  0  0
   11.7690   47.9480   50.0970 O   0  0  0  0  0  0  0  0  0  0  0  0
   12.3490   49.1800   50.6980 C   0  0  0  0  0  0  0  0  0  0  0  0
   10.1980   46.0130   48.4990 O   0  0  0  0  0  0  0  0  0  0  0  0
   10.2180   46.7040   47.3400 C   0  0  0  0  0  0  0  0  0  0  0  0
   10.9570   47.5570   46.9450 O   0  0  0  0  0  0  0  0  0  0  0  0
    8.9720   46.3410   46.4360 C   0  0  2  0  0  0  0  0  0  0  0  0
    8.5140   44.9870   46.9340 O   0  0  0  0  0  0  0  0  0  0  0  0
    9.1590   44.3500   46.6290 H   0  0  0  0  0  0  0  0  0  0  0  0
    9.2510   46.0840   45.0040 C   0  0  0  0  0  0  0  0  0  0  0  0
    8.4970   44.8100   44.5000 C   0  0  0  0  0  0  0  0  0  0  0  0
    7.3280   44.9630   44.0440 O   0  0  0  0  0  0  0  0  0  0  0  0
    9.1910   43.7080   44.6440 O   0  0  0  0  0  0  0  0  0  0  0  0
    8.8420   42.5570   43.7100 C   0  0  0  0  0  0  0  0  0  0  0  0
    7.7980   47.3100   46.5230 C   0  0  0  0  0  0  0  0  0  0  0  0
    7.3910   48.0630   45.2550 C   0  0  0  0  0  0  0  0  0  0  0  0
    7.4100   49.5900   45.4190 C   0  0  0  0  0  0  0  0  0  0  0  0
    8.1420   50.2560   44.2670 C   0  0  0  0  0  0  0  0  0  0  0  0
    7.4970   49.8180   42.9670 C   0  0  0  0  0  0  0  0  0  0  0  0
    8.1150   51.7910   44.3470 C   0  0  0  0  0  0  0  0  0  0  0  0
    9.5430   49.8220   44.2380 O   0  0  0  0  0  0  0  0  0  0  0  0
    9.5510   48.9800   43.8560 H   0  0  0  0  0  0  0  0  0  0  0  0
  1 24  1  6  0  0  0
  1 21  1  0  0  0  0
  1  2  1  0  0  0  0
  2  3  1  0  0  0  0
  2 19  1  1  0  0  0
  3 11  1  0  0  0  0
  4  3  2  0  0  0  0
  4  5  1  0  0  0  0
  5  9  2  0  0  0  0
  6  5  1  0  0  0  0
  6  7  1  0  0  0  0
  7  8  1  0  0  0  0
  9 10  1  0  0  0  0
  9  8  1  0  0  0  0
 11 12  1  0  0  0  0
 11 10  2  0  0  0  0
 13 12  1  0  0  0  0
 13 14  1  0  0  0  0
 14 19  1  6  0  0  0
 14 15  1  0  0  0  0
 14 16  1  0  0  0  0
 17 16  1  0  0  0  0
 18 17  1  0  0  0  0
 19 18  1  6  0  0  0
 19 20  1  0  0  0  0
 21 22  1  6  0  0  0
 21 20  1  0  0  0  0
 22 23  1  0  0  0  0
 25 24  1  0  0  0  0
 26 25  2  0  0  0  0
 27 30  1  6  0  0  0
 27 35  1  0  0  0  0
 27 28  1  0  0  0  0
 27 25  1  0  0  0  0
 29 28  1  0  0  0  0
 31 33  1  0  0  0  0
 31 30  1  0  0  0  0
 32 31  2  0  0  0  0
 34 33  1  0  0  0  0
 36 37  1  0  0  0  0
 36 35  1  0  0  0  0
 38 40  1  0  0  0  0
 38 37  1  0  0  0  0
 39 38  1  0  0  0  0
 41 38  1  0  0  0  0
 42 41  1  0  0  0  0
M  END
>  <minimizedAffinity>
-7.4957304

$$$$

 OpenBabel12271915023D

 42 46  0  0  1  0  0  0  0  0999 V2000
    9.6730   46.8720   49.5610 C   0  0  1  0  0  0  0  0  0  0  0  0
    8.7250   46.0920   50.6100 C   0  0  1  0  0  0  0  0  0  0  0  0
    9.2920   44.9250   51.4700 C   0  0  0  0  0  0  0  0  0  0  0  0
   10.6070   44.5090   51.3120 C   0  0  0  0  0  0  0  0  0  0  0  0
   11.0990   43.4990   52.1010 C   0  0  0  0  0  0  0  0  0  0  0  0
   12.3570   42.9980   52.0420 O   0  0  0  0  0  0  0  0  0  0  0  0
   12.4120   42.2100   53.2800 C   0  0  0  0  0  0  0  0  0  0  0  0
   11.0210   41.9290   53.7010 O   0  0  0  0  0  0  0  0  0  0  0  0
   10.3460   42.9010   53.0330 C   0  0  0  0  0  0  0  0  0  0  0  0
    9.0490   43.2690   53.2360 C   0  0  0  0  0  0  0  0  0  0  0  0
    8.4800   44.3330   52.4190 C   0  0  0  0  0  0  0  0  0  0  0  0
    7.0710   44.6500   52.8210 C   0  0  0  0  0  0  0  0  0  0  0  0
    6.7000   46.0100   52.5820 C   0  0  0  0  0  0  0  0  0  0  0  0
    7.9080   46.9260   52.8500 N   0  0  2  0  0  0  0  0  0  0  0  0
    8.6450   46.3770   53.4250 H   0  0  0  0  0  0  0  0  0  0  0  0
    7.5010   48.1830   53.3860 C   0  0  0  0  0  0  0  0  0  0  0  0
    6.8640   48.8540   52.1780 C   0  0  0  0  0  0  0  0  0  0  0  0
    7.5160   48.2760   50.9490 C   0  0  0  0  0  0  0  0  0  0  0  0
    8.5530   47.2610   51.5090 C   0  0  2  0  0  0  0  0  0  0  0  0
    9.8570   47.8980   51.6330 C   0  0  0  0  0  0  0  0  0  0  0  0
   10.5540   47.6350   50.5420 C   0  0  2  0  0  0  0  0  0  0  0  0
   11.8170   47.9760   50.1930 O   0  0  0  0  0  0  0  0  0  0  0  0
   12.3540   49.2140   50.8210 C   0  0  0  0  0  0  0  0  0  0  0  0
   10.3440   46.0020   48.5480 O   0  0  0  0  0  0  0  0  0  0  0  0
   10.4100   46.6990   47.3950 C   0  0  0  0  0  0  0  0  0  0  0  0
   11.0510   47.6630   47.0940 O   0  0  0  0  0  0  0  0  0  0  0  0
    9.3720   46.1520   46.3350 C   0  0  2  0  0  0  0  0  0  0  0  0
    9.8290   46.7310   45.0130 O   0  0  0  0  0  0  0  0  0  0  0  0
    9.6080   47.6610   45.0290 H   0  0  0  0  0  0  0  0  0  0  0  0
    7.9850   46.6580   46.4500 C   0  0  0  0  0  0  0  0  0  0  0  0
    7.6390   47.6330   45.2770 C   0  0  0  0  0  0  0  0  0  0  0  0
    7.2160   47.1270   44.2000 O   0  0  0  0  0  0  0  0  0  0  0  0
    7.8640   48.8910   45.5670 O   0  0  0  0  0  0  0  0  0  0  0  0
    8.3230   49.7820   44.4210 C   0  0  0  0  0  0  0  0  0  0  0  0
    9.3120   44.6340   46.2040 C   0  0  0  0  0  0  0  0  0  0  0  0
    8.9170   44.0440   44.8490 C   0  0  0  0  0  0  0  0  0  0  0  0
    8.8070   42.5120   44.8590 C   0  0  0  0  0  0  0  0  0  0  0  0
    8.7630   41.9560   43.4470 C   0  0  0  0  0  0  0  0  0  0  0  0
    7.6060   40.9810   43.3470 C   0  0  0  0  0  0  0  0  0  0  0  0
    8.5930   43.0470   42.3770 C   0  0  0  0  0  0  0  0  0  0  0  0
    9.9950   41.2150   43.1550 O   0  0  0  0  0  0  0  0  0  0  0  0
    9.9110   40.3900   43.5640 H   0  0  0  0  0  0  0  0  0  0  0  0
  1 24  1  1  0  0  0
  1 21  1  0  0  0  0
  1  2  1  0  0  0  0
  2  3  1  0  0  0  0
  2 19  1  1  0  0  0
  3 11  1  0  0  0  0
  4  3  2  0  0  0  0
  4  5  1  0  0  0  0
  5  9  2  0  0  0  0
  6  5  1  0  0  0  0
  6  7  1  0  0  0  0
  7  8  1  0  0  0  0
  9 10  1  0  0  0  0
  9  8  1  0  0  0  0
 11 12  1  0  0  0  0
 11 10  2  0  0  0  0
 13 12  1  0  0  0  0
 13 14  1  0  0  0  0
 14 19  1  6  0  0  0
 14 16  1  0  0  0  0
 14 15  1  0  0  0  0
 17 16  1  0  0  0  0
 18 17  1  0  0  0  0
 19 18  1  6  0  0  0
 19 20  1  0  0  0  0
 21 22  1  6  0  0  0
 21 20  1  0  0  0  0
 22 23  1  0  0  0  0
 25 24  1  0  0  0  0
 26 25  2  0  0  0  0
 27 35  1  6  0  0  0
 27 30  1  0  0  0  0
 27 25  1  0  0  0  0
 28 29  1  0  0  0  0
 28 27  1  0  0  0  0
 31 33  1  0  0  0  0
 31 30  1  0  0  0  0
 32 31  2  0  0  0  0
 34 33  1  0  0  0  0
 36 37  1  0  0  0  0
 36 35  1  0  0  0  0
 38 37  1  0  0  0  0
 39 38  1  0  0  0  0
 40 38  1  0  0  0  0
 41 38  1  0  0  0  0
 41 42  1  0  0  0  0
M  END
>  <minimizedAffinity>
-7.43737507

$$$$

 OpenBabel12271915023D

 42 46  0  0  1  0  0  0  0  0999 V2000
    7.8660   42.3610   43.4410 C   0  0  1  0  0  0  0  0  0  0  0  0
    6.5630   42.2240   42.4950 C   0  0  1  0  0  0  0  0  0  0  0  0
    6.7160   42.1380   40.9480 C   0  0  0  0  0  0  0  0  0  0  0  0
    7.9710   42.2260   40.3590 C   0  0  0  0  0  0  0  0  0  0  0  0
    8.0900   42.1180   38.9960 C   0  0  0  0  0  0  0  0  0  0  0  0
    9.2510   42.1920   38.3000 O   0  0  0  0  0  0  0  0  0  0  0  0
    8.8300   41.6990   36.9830 C   0  0  0  0  0  0  0  0  0  0  0  0
    7.3590   41.8430   36.8930 O   0  0  0  0  0  0  0  0  0  0  0  0
    7.0250   41.9200   38.2090 C   0  0  0  0  0  0  0  0  0  0  0  0
    5.7690   41.8230   38.7290 C   0  0  0  0  0  0  0  0  0  0  0  0
    5.5910   41.9370   40.1720 C   0  0  0  0  0  0  0  0  0  0  0  0
    4.1600   41.7410   40.5730 C   0  0  0  0  0  0  0  0  0  0  0  0
    4.0040   41.1890   41.8820 C   0  0  0  0  0  0  0  0  0  0  0  0
    5.1300   40.1730   42.1500 N   0  0  2  0  0  0  0  0  0  0  0  0
    5.5880   39.9000   41.2060 H   0  0  0  0  0  0  0  0  0  0  0  0
    4.6760   39.0940   42.9640 C   0  0  0  0  0  0  0  0  0  0  0  0
    4.5300   39.7600   44.3240 C   0  0  0  0  0  0  0  0  0  0  0  0
    5.4980   40.9130   44.3650 C   0  0  0  0  0  0  0  0  0  0  0  0
    6.2050   40.8670   42.9800 C   0  0  2  0  0  0  0  0  0  0  0  0
    7.4440   40.1080   43.0770 C   0  0  0  0  0  0  0  0  0  0  0  0
    8.4360   40.9570   43.2820 C   0  0  2  0  0  0  0  0  0  0  0  0
    9.7670   40.7490   43.4140 O   0  0  0  0  0  0  0  0  0  0  0  0
   10.1770   39.8240   44.5050 C   0  0  0  0  0  0  0  0  0  0  0  0
    8.7560   43.5180   43.1260 O   0  0  0  0  0  0  0  0  0  0  0  0
    8.9020   44.2370   44.2580 C   0  0  0  0  0  0  0  0  0  0  0  0
    9.0700   43.8940   45.3920 O   0  0  0  0  0  0  0  0  0  0  0  0
    8.7190   45.7830   43.9820 C   0  0  2  0  0  0  0  0  0  0  0  0
    9.7600   46.4570   44.8500 O   0  0  0  0  0  0  0  0  0  0  0  0
    9.4510   46.3890   45.7530 H   0  0  0  0  0  0  0  0  0  0  0  0
    7.4550   46.3920   44.4580 C   0  0  0  0  0  0  0  0  0  0  0  0
    7.6840   47.2250   45.7620 C   0  0  0  0  0  0  0  0  0  0  0  0
    7.8840   48.4660   45.6370 O   0  0  0  0  0  0  0  0  0  0  0  0
    7.6610   46.4970   46.8510 O   0  0  0  0  0  0  0  0  0  0  0  0
    7.0140   47.1260   48.0770 C   0  0  0  0  0  0  0  0  0  0  0  0
    8.9380   46.2190   42.5370 C   0  0  0  0  0  0  0  0  0  0  0  0
    7.7080   46.4060   41.6480 C   0  0  0  0  0  0  0  0  0  0  0  0
    7.7610   47.6820   40.7950 C   0  0  0  0  0  0  0  0  0  0  0  0
    6.6560   48.6490   41.1850 C   0  0  0  0  0  0  0  0  0  0  0  0
    7.1480   49.5050   42.3350 C   0  0  0  0  0  0  0  0  0  0  0  0
    6.2230   49.5640   40.0280 C   0  0  0  0  0  0  0  0  0  0  0  0
    5.4780   47.9100   41.6520 O   0  0  0  0  0  0  0  0  0  0  0  0
    5.6580   47.6470   42.5200 H   0  0  0  0  0  0  0  0  0  0  0  0
  1 24  1  6  0  0  0
  2 19  1  1  0  0  0
  2  1  1  0  0  0  0
  3  2  1  0  0  0  0
  4  3  1  0  0  0  0
  5  4  2  0  0  0  0
  6  5  1  0  0  0  0
  7  6  1  0  0  0  0
  8  7  1  0  0  0  0
  8  9  1  0  0  0  0
  9 10  2  0  0  0  0
  9  5  1  0  0  0  0
 10 11  1  0  0  0  0
 11 12  1  0  0  0  0
 11  3  2  0  0  0  0
 12 13  1  0  0  0  0
 13 14  1  0  0  0  0
 14 16  1  0  0  0  0
 14 19  1  1  0  0  0
 15 14  1  0  0  0  0
 16 17  1  0  0  0  0
 17 18  1  0  0  0  0
 19 20  1  1  0  0  0
 19 18  1  0  0  0  0
 20 21  1  0  0  0  0
 21 22  1  1  0  0  0
 21  1  1  0  0  0  0
 22 23  1  0  0  0  0
 24 25  1  0  0  0  0
 25 26  2  0  0  0  0
 27 35  1  6  0  0  0
 27 25  1  0  0  0  0
 27 30  1  0  0  0  0
 27 28  1  0  0  0  0
 28 29  1  0  0  0  0
 30 31  1  0  0  0  0
 31 33  1  0  0  0  0
 32 31  2  0  0  0  0
 33 34  1  0  0  0  0
 36 35  1  0  0  0  0
 37 38  1  0  0  0  0
 37 36  1  0  0  0  0
 38 41  1  0  0  0  0
 38 39  1  0  0  0  0
 40 38  1  0  0  0  0
 41 42  1  0  0  0  0
M  END
>  <minimizedAffinity>
-7.1912694

$$$$

 OpenBabel12271915023D

 42 46  0  0  1  0  0  0  0  0999 V2000
    8.2790   46.8980   48.5840 C   0  0  1  0  0  0  0  0  0  0  0  0
    8.1980   46.0460   49.9540 C   0  0  1  0  0  0  0  0  0  0  0  0
    8.8830   44.6520   50.0590 C   0  0  0  0  0  0  0  0  0  0  0  0
    9.5330   44.1020   48.9610 C   0  0  0  0  0  0  0  0  0  0  0  0
   10.1580   42.8870   49.0810 C   0  0  0  0  0  0  0  0  0  0  0  0
   10.8190   42.2420   48.0880 O   0  0  0  0  0  0  0  0  0  0  0  0
   11.5300   41.2020   48.8430 C   0  0  0  0  0  0  0  0  0  0  0  0
   10.8400   41.0310   50.1410 O   0  0  0  0  0  0  0  0  0  0  0  0
   10.1690   42.2100   50.2360 C   0  0  0  0  0  0  0  0  0  0  0  0
    9.5510   42.7000   51.3480 C   0  0  0  0  0  0  0  0  0  0  0  0
    8.8690   43.9860   51.2690 C   0  0  0  0  0  0  0  0  0  0  0  0
    8.3050   44.3980   52.5960 C   0  0  0  0  0  0  0  0  0  0  0  0
    8.2380   45.8150   52.7720 C   0  0  0  0  0  0  0  0  0  0  0  0
    9.4570   46.4750   52.1010 N   0  0  2  0  0  0  0  0  0  0  0  0
   10.2100   45.7170   51.9170 H   0  0  0  0  0  0  0  0  0  0  0  0
    9.8870   47.6280   52.8200 C   0  0  0  0  0  0  0  0  0  0  0  0
    8.7840   48.6290   52.5100 C   0  0  0  0  0  0  0  0  0  0  0  0
    8.1970   48.2490   51.1760 C   0  0  0  0  0  0  0  0  0  0  0  0
    9.0180   47.0030   50.7380 C   0  0  2  0  0  0  0  0  0  0  0  0
   10.1280   47.4100   49.8880 C   0  0  0  0  0  0  0  0  0  0  0  0
    9.7480   47.2980   48.6270 C   0  0  2  0  0  0  0  0  0  0  0  0
   10.4200   47.5300   47.4750 O   0  0  0  0  0  0  0  0  0  0  0  0
   11.4050   46.4890   47.0750 C   0  0  0  0  0  0  0  0  0  0  0  0
    7.7830   46.1860   47.3670 O   0  0  0  0  0  0  0  0  0  0  0  0
    7.4260   47.1240   46.4660 C   0  0  0  0  0  0  0  0  0  0  0  0
    6.7100   48.0770   46.5640 O   0  0  0  0  0  0  0  0  0  0  0  0
    8.0160   46.7970   45.0350 C   0  0  2  0  0  0  0  0  0  0  0  0
    9.0870   47.8430   44.8110 O   0  0  0  0  0  0  0  0  0  0  0  0
    8.6340   48.6680   44.6430 H   0  0  0  0  0  0  0  0  0  0  0  0
    7.1070   47.0090   43.8850 C   0  0  0  0  0  0  0  0  0  0  0  0
    7.5550   48.2390   43.0290 C   0  0  0  0  0  0  0  0  0  0  0  0
    8.2770   48.0160   42.0160 O   0  0  0  0  0  0  0  0  0  0  0  0
    7.1290   49.3820   43.5040 O   0  0  0  0  0  0  0  0  0  0  0  0
    7.7060   50.6410   42.8700 C   0  0  0  0  0  0  0  0  0  0  0  0
    8.6480   45.4170   44.8900 C   0  0  0  0  0  0  0  0  0  0  0  0
    9.2940   45.0590   43.5510 C   0  0  0  0  0  0  0  0  0  0  0  0
    9.2220   43.5610   43.2200 C   0  0  0  0  0  0  0  0  0  0  0  0
    8.2950   43.3020   42.0450 C   0  0  0  0  0  0  0  0  0  0  0  0
    7.0120   42.6860   42.5700 C   0  0  0  0  0  0  0  0  0  0  0  0
    7.9530   44.5780   41.2590 C   0  0  0  0  0  0  0  0  0  0  0  0
    8.9040   42.3420   41.1200 O   0  0  0  0  0  0  0  0  0  0  0  0
    8.7890   41.5040   41.4940 H   0  0  0  0  0  0  0  0  0  0  0  0
  1 24  1  6  0  0  0
  1 21  1  0  0  0  0
  1  2  1  0  0  0  0
  2  3  1  0  0  0  0
  2 19  1  1  0  0  0
  3 11  2  0  0  0  0
  4  5  2  0  0  0  0
  4  3  1  0  0  0  0
  5  9  1  0  0  0  0
  6  7  1  0  0  0  0
  6  5  1  0  0  0  0
  7  8  1  0  0  0  0
  8  9  1  0  0  0  0
  9 10  2  0  0  0  0
 11 10  1  0  0  0  0
 11 12  1  0  0  0  0
 12 13  1  0  0  0  0
 14 19  1  6  0  0  0
 14 13  1  0  0  0  0
 14 16  1  0  0  0  0
 15 14  1  0  0  0  0
 17 16  1  0  0  0  0
 18 17  1  0  0  0  0
 19 20  1  6  0  0  0
 19 18  1  0  0  0  0
 21 22  1  6  0  0  0
 21 20  1  0  0  0  0
 23 22  1  0  0  0  0
 25 26  2  0  0  0  0
 25 24  1  0  0  0  0
 27 30  1  6  0  0  0
 27 25  1  0  0  0  0
 28 27  1  0  0  0  0
 29 28  1  0  0  0  0
 31 33  1  0  0  0  0
 31 30  1  0  0  0  0
 32 31  2  0  0  0  0
 34 33  1  0  0  0  0
 35 27  1  0  0  0  0
 36 35  1  0  0  0  0
 37 36  1  0  0  0  0
 38 39  1  0  0  0  0
 38 37  1  0  0  0  0
 40 38  1  0  0  0  0
 41 42  1  0  0  0  0
 41 38  1  0  0  0  0
M  END
>  <minimizedAffinity>
-7.18671989

$$$$
