REMARK  Name = DB04865Prodrug_1.pdb
REMARK  3 active torsions:
REMARK  status: ('A' for Active; 'I' for Inactive)
REMARK    1  A    between atoms: _1  and  _23
REMARK    2  A    between atoms: _2  and  _3
REMARK    3  A    between atoms: _3  and  _4
REMARK                            x       y       z     vdW  Elec       q    Type
REMARK                         _______ _______ _______ _____ _____    ______ ____
ROOT
ATOM      1  C   UNL     1       1.268   1.154   1.373  0.00  0.00    +0.193 C 
ATOM      2  C   UNL     1       0.293   0.062   1.057  0.00  0.00    +0.111 C 
ATOM      3  C   UNL     1      -1.054   0.351   0.441  0.00  0.00    -0.028 A 
ATOM      4  C   UNL     1      -1.396   1.670   0.122  0.00  0.00    +0.054 A 
ATOM      5  C   UNL     1      -2.638   1.908  -0.514  0.00  0.00    +0.167 A 
ATOM      6  O   UNL     1      -3.051   3.104  -0.958  0.00  0.00    -0.453 OA
ATOM      7  C   UNL     1      -4.158   2.780  -1.798  0.00  0.00    +0.466 C 
ATOM      8  O   UNL     1      -4.594   1.441  -1.464  0.00  0.00    -0.453 OA
ATOM      9  C   UNL     1      -3.512   0.940  -0.804  0.00  0.00    +0.167 A 
ATOM     10  C   UNL     1      -3.248  -0.367  -0.490  0.00  0.00    +0.053 A 
ATOM     11  C   UNL     1      -2.002  -0.685   0.117  0.00  0.00    -0.035 A 
ATOM     12  C   UNL     1      -1.896  -2.167   0.300  0.00  0.00    +0.086 C 
ATOM     13  C   UNL     1      -0.439  -2.664   0.307  0.00  0.00    +0.137 C 
ATOM     14  N   UNL     1       0.410  -1.830  -0.624  0.00  0.00    +0.243 N 
ATOM     15  H   UNL     1      -0.139  -1.418  -1.395  0.00  0.00    +0.204 HD
ATOM     16  C   UNL     1       1.502  -2.696  -1.188  0.00  0.00    +0.132 C 
ATOM     17  C   UNL     1       2.293  -2.975   0.073  0.00  0.00    +0.057 C 
ATOM     18  C   UNL     1       2.241  -1.648   0.849  0.00  0.00    +0.068 C 
ATOM     19  C   UNL     1       1.171  -0.810   0.138  0.00  0.00    +0.022 C 
ATOM     20  C   UNL     1       1.789   0.276  -0.693  0.00  0.00    +0.074 C 
ATOM     21  C   UNL     1       1.857   1.399   0.018  0.00  0.00    +0.128 C 
ENDROOT
BRANCH   1  22
ATOM     22  O   UNL     1       0.749   2.308   1.983  0.00  0.00    -0.383 OA
ATOM     23  H   UNL     1       0.092   2.052   2.646  0.00  0.00    +0.210 HD
ENDBRANCH   1  22
BRANCH  21  24
ATOM     24  O   UNL     1       2.295   2.588  -0.453  0.00  0.00    -0.497 OA
ATOM     25  C   UNL     1       3.158   3.411   0.338  0.00  0.00    +0.276 C 
ENDBRANCH  21  24
TORSDOF 2
