REMARK  Name = DB04865_3.pdb
REMARK  17 active torsions:
REMARK  status: ('A' for Active; 'I' for Inactive)
REMARK    1  A    between atoms: _1  and  _2
REMARK    2  A    between atoms: _2  and  _3
REMARK    3  A    between atoms: _3  and  _5
REMARK    4  A    between atoms: _5  and  _6
REMARK    5  A    between atoms: _5  and  _7
REMARK    6  A    between atoms: _5  and  _14
REMARK    7  A    between atoms: _7  and  _8
REMARK    8  A    between atoms: _8  and  _9
REMARK    9  A    between atoms: _9  and  _10
REMARK   10  A    between atoms: _10  and  _11
REMARK   11  A    between atoms: _10  and  _12
REMARK   12  A    between atoms: _10  and  _13
REMARK   13  A    between atoms: _14  and  _15
REMARK   14  A    between atoms: _15  and  _17
REMARK   15  A    between atoms: _17  and  _18
REMARK   16  A    between atoms: _19  and  _20
REMARK   17  A    between atoms: _20  and  _21
REMARK                            x       y       z     vdW  Elec       q    Type
REMARK                         _______ _______ _______ _____ _____    ______ ____
ROOT
ATOM      1  C   UNL     1      -0.456  -0.921   0.106  0.00  0.00    +0.254 C 
ATOM      2  C   UNL     1      -1.956  -0.742   0.678  0.00  0.00    +0.123 C 
ATOM      3  C   UNL     1      -2.639   0.657   0.680  0.00  0.00    -0.027 A 
ATOM      4  C   UNL     1      -1.950   1.777   0.234  0.00  0.00    +0.054 A 
ATOM      5  C   UNL     1      -2.578   2.997   0.214  0.00  0.00    +0.167 A 
ATOM      6  O   UNL     1      -2.017   4.163  -0.191  0.00  0.00    -0.453 OA
ATOM      7  C   UNL     1      -3.199   5.027  -0.305  0.00  0.00    +0.466 C 
ATOM      8  O   UNL     1      -4.280   4.428   0.510  0.00  0.00    -0.453 OA
ATOM      9  C   UNL     1      -3.850   3.142   0.607  0.00  0.00    +0.167 A 
ATOM     10  C   UNL     1      -4.578   2.079   1.052  0.00  0.00    +0.053 A 
ATOM     11  C   UNL     1      -3.952   0.763   1.097  0.00  0.00    -0.035 A 
ATOM     12  C   UNL     1      -4.914  -0.295   1.547  0.00  0.00    +0.086 C 
ATOM     13  C   UNL     1      -4.634  -1.589   1.008  0.00  0.00    +0.137 C 
ATOM     14  N   UNL     1      -4.113  -1.443  -0.434  0.00  0.00    +0.243 N 
ATOM     15  H   UNL     1      -4.355  -0.450  -0.796  0.00  0.00    +0.204 HD
ATOM     16  C   UNL     1      -4.534  -2.531  -1.253  0.00  0.00    +0.132 C 
ATOM     17  C   UNL     1      -3.679  -3.675  -0.729  0.00  0.00    +0.057 C 
ATOM     18  C   UNL     1      -2.420  -3.071  -0.164  0.00  0.00    +0.068 C 
ATOM     19  C   UNL     1      -2.591  -1.543  -0.399  0.00  0.00    +0.023 C 
ATOM     20  C   UNL     1      -1.954  -1.156  -1.650  0.00  0.00    +0.075 C 
ATOM     21  C   UNL     1      -0.733  -0.730  -1.380  0.00  0.00    +0.140 C 
ENDROOT
BRANCH  21  22
ATOM     22  O   UNL     1       0.236  -0.244  -2.191  0.00  0.00    -0.496 OA
ATOM     23  C   UNL     1       0.229  -0.751  -3.590  0.00  0.00    +0.276 C 
ENDBRANCH  21  22
BRANCH   1  24
ATOM     24  O   UNL     1       0.572  -0.045   0.745  0.00  0.00    -0.451 OA
BRANCH  24  25
ATOM     25  C   UNL     1       1.555  -0.845   1.207  0.00  0.00    +0.340 C 
ATOM     26  O   UNL     1       1.643  -2.037   1.255  0.00  0.00    -0.248 OA
BRANCH  25  27
ATOM     27  C   UNL     1       2.718   0.000   1.867  0.00  0.00    +0.172 C 
BRANCH  27  28
ATOM     28  O   UNL     1       3.785  -1.016   2.213  0.00  0.00    -0.377 OA
ATOM     29  H   UNL     1       3.461  -1.509   2.966  0.00  0.00    +0.211 HD
ENDBRANCH  27  28
BRANCH  27  30
ATOM     30  C   UNL     1       2.419   0.619   3.179  0.00  0.00    +0.166 C 
BRANCH  30  31
ATOM     31  C   UNL     1       1.253   1.655   3.063  0.00  0.00    +0.310 C 
ATOM     32  O   UNL     1       0.072   1.224   3.187  0.00  0.00    -0.251 OA
BRANCH  31  33
ATOM     33  O   UNL     1       1.667   2.874   2.820  0.00  0.00    -0.468 OA
ATOM     34  C   UNL     1       0.592   3.945   2.692  0.00  0.00    +0.280 C 
ENDBRANCH  31  33
ENDBRANCH  30  31
ENDBRANCH  27  30
BRANCH  27  35
ATOM     35  C   UNL     1       3.338   1.067   0.971  0.00  0.00    +0.047 C 
BRANCH  35  36
ATOM     36  C   UNL     1       3.785   0.656  -0.433  0.00  0.00    +0.006 C 
BRANCH  36  37
ATOM     37  C   UNL     1       4.926  -0.372  -0.433  0.00  0.00    +0.034 C 
BRANCH  37  38
ATOM     38  C   UNL     1       5.362  -0.707  -1.849  0.00  0.00    +0.061 C 
ATOM     39  C   UNL     1       6.475  -1.735  -1.781  0.00  0.00    +0.041 C 
ATOM     40  C   UNL     1       4.219  -1.263  -2.713  0.00  0.00    +0.041 C 
BRANCH  38  41
ATOM     41  O   UNL     1       5.899   0.487  -2.510  0.00  0.00    -0.389 OA
ATOM     42  H   UNL     1       6.759   0.602  -2.191  0.00  0.00    +0.210 HD
ENDBRANCH  38  41
ENDBRANCH  37  38
ENDBRANCH  36  37
ENDBRANCH  35  36
ENDBRANCH  27  35
ENDBRANCH  25  27
ENDBRANCH  24  25
ENDBRANCH   1  24
TORSDOF 13
