REMARK  Name = DB04060_2.pdb
REMARK  7 active torsions:
REMARK  status: ('A' for Active; 'I' for Inactive)
REMARK    1  A    between atoms: _1  and  _20
REMARK    2  A    between atoms: _3  and  _12
REMARK    3  A    between atoms: _5  and  _6
REMARK    4  A    between atoms: _6  and  _7
REMARK    5  A    between atoms: _7  and  _8
REMARK    6  A    between atoms: _15  and  _19
REMARK    7  A    between atoms: _16  and  _17
REMARK                            x       y       z     vdW  Elec       q    Type
REMARK                         _______ _______ _______ _____ _____    ______ ____
ROOT
ATOM      1  C   UNL     1       2.144  -1.808   0.103  0.00  0.00    +0.148 C 
ATOM      2  C   UNL     1       2.103  -0.490   0.909  0.00  0.00    +0.173 C 
ATOM      3  O   UNL     1       0.738  -0.015   0.863  0.00  0.00    -0.364 OA
ATOM      4  C   UNL     1      -0.080  -1.125   0.513  0.00  0.00    +0.153 C 
ATOM      5  C   UNL     1       0.751  -1.923  -0.484  0.00  0.00    +0.070 C 
ENDROOT
BRANCH   4   6
ATOM      6  C   UNL     1      -1.430  -0.671   0.038  0.00  0.00    -0.000 A 
ATOM      7  C   UNL     1      -2.035   0.429   0.664  0.00  0.00    +0.016 A 
ATOM      8  C   UNL     1      -3.278   0.896   0.215  0.00  0.00    +0.011 A 
ATOM      9  C   UNL     1      -3.846   2.105   0.883  0.00  0.00    +0.049 C 
ATOM     10  C   UNL     1      -3.878   0.191  -0.793  0.00  0.00    +0.215 A 
ATOM     11  N   UNL     1      -3.353  -0.889  -1.400  0.00  0.00    -0.221 NA
ATOM     12  C   UNL     1      -2.128  -1.286  -0.979  0.00  0.00    +0.120 A 
BRANCH  10  13
ATOM     13  O   UNL     1      -5.115   0.519  -1.270  0.00  0.00    -0.492 OA
ATOM     14  H   UNL     1      -5.612   0.812  -0.506  0.00  0.00    +0.294 HD
ENDBRANCH  10  13
ENDBRANCH   4   6
BRANCH   1  15
ATOM     15  O   UNL     1       2.373  -2.938   0.966  0.00  0.00    -0.389 OA
ATOM     16  H   UNL     1       1.531  -3.204   1.356  0.00  0.00    +0.210 HD
ENDBRANCH   1  15
BRANCH   2  17
ATOM     17  C   UNL     1       3.114   0.579   0.429  0.00  0.00    +0.197 C 
BRANCH  17  18
ATOM     18  O   UNL     1       3.004   0.899  -0.919  0.00  0.00    -0.365 OA
BRANCH  18  19
ATOM     19  P   UNL     1       4.065   2.022  -1.447  0.00  0.00    -0.015 P 
ATOM     20  O   UNL     1       5.392   1.518  -0.914  0.00  0.00    -0.638 OA
ATOM     21  O   UNL     1       3.939   2.000  -2.948  0.00  0.00    -0.577 OA
ATOM     22  O   UNL     1       3.601   3.305  -0.772  0.00  0.00    -0.577 OA
ENDBRANCH  18  19
ENDBRANCH  17  18
ENDBRANCH   2  17
TORSDOF 6
