REMARK  Name = DB04865_2.pdb
REMARK  17 active torsions:
REMARK  status: ('A' for Active; 'I' for Inactive)
REMARK    1  A    between atoms: _1  and  _2
REMARK    2  A    between atoms: _2  and  _3
REMARK    3  A    between atoms: _3  and  _5
REMARK    4  A    between atoms: _5  and  _6
REMARK    5  A    between atoms: _5  and  _7
REMARK    6  A    between atoms: _5  and  _14
REMARK    7  A    between atoms: _7  and  _8
REMARK    8  A    between atoms: _8  and  _9
REMARK    9  A    between atoms: _9  and  _10
REMARK   10  A    between atoms: _10  and  _11
REMARK   11  A    between atoms: _10  and  _12
REMARK   12  A    between atoms: _10  and  _13
REMARK   13  A    between atoms: _14  and  _15
REMARK   14  A    between atoms: _15  and  _17
REMARK   15  A    between atoms: _17  and  _18
REMARK   16  A    between atoms: _19  and  _20
REMARK   17  A    between atoms: _20  and  _21
REMARK                            x       y       z     vdW  Elec       q    Type
REMARK                         _______ _______ _______ _____ _____    ______ ____
ROOT
ATOM      1  C   UNL     1      -1.323  -1.019  -1.976  0.00  0.00    +0.254 C 
ATOM      2  C   UNL     1      -2.622  -0.981  -1.185  0.00  0.00    +0.123 C 
ATOM      3  C   UNL     1      -2.549  -1.534   0.174  0.00  0.00    -0.027 A 
ATOM      4  C   UNL     1      -2.156  -2.872   0.202  0.00  0.00    +0.054 A 
ATOM      5  C   UNL     1      -2.041  -3.550   1.423  0.00  0.00    +0.167 A 
ATOM      6  O   UNL     1      -1.672  -4.855   1.677  0.00  0.00    -0.453 OA
ATOM      7  C   UNL     1      -1.876  -5.101   3.079  0.00  0.00    +0.466 C 
ATOM      8  O   UNL     1      -2.122  -3.808   3.652  0.00  0.00    -0.453 OA
ATOM      9  C   UNL     1      -2.300  -2.945   2.580  0.00  0.00    +0.167 A 
ATOM     10  C   UNL     1      -2.692  -1.614   2.579  0.00  0.00    +0.053 A 
ATOM     11  C   UNL     1      -2.820  -0.915   1.367  0.00  0.00    -0.035 A 
ATOM     12  C   UNL     1      -3.232   0.486   1.594  0.00  0.00    +0.086 C 
ATOM     13  C   UNL     1      -2.311   1.362   0.818  0.00  0.00    +0.137 C 
ATOM     14  N   UNL     1      -2.602   1.499  -0.600  0.00  0.00    +0.243 N 
ATOM     15  H   UNL     1      -1.763   1.851  -1.054  0.00  0.00    +0.204 HD
ATOM     16  C   UNL     1      -3.642   2.537  -0.745  0.00  0.00    +0.132 C 
ATOM     17  C   UNL     1      -4.941   1.839  -1.071  0.00  0.00    +0.057 C 
ATOM     18  C   UNL     1      -4.622   0.392  -1.319  0.00  0.00    +0.068 C 
ATOM     19  C   UNL     1      -3.128   0.388  -1.370  0.00  0.00    +0.023 C 
ATOM     20  C   UNL     1      -2.739   0.649  -2.780  0.00  0.00    +0.075 C 
ATOM     21  C   UNL     1      -1.729  -0.144  -3.135  0.00  0.00    +0.140 C 
ENDROOT
BRANCH  21  22
ATOM     22  O   UNL     1      -1.139  -0.201  -4.357  0.00  0.00    -0.496 OA
ATOM     23  C   UNL     1      -1.306   0.920  -5.255  0.00  0.00    +0.276 C 
ENDBRANCH  21  22
BRANCH   1  24
ATOM     24  O   UNL     1      -0.259  -0.331  -1.278  0.00  0.00    -0.451 OA
BRANCH  24  25
ATOM     25  C   UNL     1       0.886  -1.045  -1.031  0.00  0.00    +0.340 C 
ATOM     26  O   UNL     1       1.046  -2.172  -1.348  0.00  0.00    -0.248 OA
BRANCH  25  27
ATOM     27  C   UNL     1       2.032  -0.345  -0.296  0.00  0.00    +0.172 C 
BRANCH  27  28
ATOM     28  O   UNL     1       1.659   0.993  -0.092  0.00  0.00    -0.377 OA
ATOM     29  H   UNL     1       0.934   1.254  -0.689  0.00  0.00    +0.211 HD
ENDBRANCH  27  28
BRANCH  27  30
ATOM     30  C   UNL     1       3.332  -0.494  -1.046  0.00  0.00    +0.166 C 
BRANCH  30  31
ATOM     31  C   UNL     1       3.373   0.156  -2.421  0.00  0.00    +0.310 C 
ATOM     32  O   UNL     1       4.372   0.062  -3.062  0.00  0.00    -0.251 OA
BRANCH  31  33
ATOM     33  O   UNL     1       2.272   0.825  -2.887  0.00  0.00    -0.468 OA
ATOM     34  C   UNL     1       2.409   1.417  -4.215  0.00  0.00    +0.280 C 
ENDBRANCH  31  33
ENDBRANCH  30  31
ENDBRANCH  27  30
BRANCH  27  35
ATOM     35  C   UNL     1       2.139  -1.031   1.056  0.00  0.00    +0.047 C 
BRANCH  35  36
ATOM     36  C   UNL     1       3.275  -0.590   1.944  0.00  0.00    +0.006 C 
BRANCH  36  37
ATOM     37  C   UNL     1       3.268   0.881   2.320  0.00  0.00    +0.034 C 
BRANCH  37  38
ATOM     38  C   UNL     1       4.447   1.150   3.233  0.00  0.00    +0.061 C 
ATOM     39  C   UNL     1       5.770   0.804   2.582  0.00  0.00    +0.041 C 
ATOM     40  C   UNL     1       4.479   2.600   3.647  0.00  0.00    +0.041 C 
BRANCH  38  41
ATOM     41  O   UNL     1       4.281   0.376   4.404  0.00  0.00    -0.389 OA
ATOM     42  H   UNL     1       3.641   0.850   4.952  0.00  0.00    +0.210 HD
ENDBRANCH  38  41
ENDBRANCH  37  38
ENDBRANCH  36  37
ENDBRANCH  35  36
ENDBRANCH  27  35
ENDBRANCH  25  27
ENDBRANCH  24  25
ENDBRANCH   1  24
TORSDOF 13
