REMARK  Name = DB04865Prodrug_4.pdb
REMARK  3 active torsions:
REMARK  status: ('A' for Active; 'I' for Inactive)
REMARK    1  A    between atoms: _1  and  _23
REMARK    2  A    between atoms: _2  and  _3
REMARK    3  A    between atoms: _3  and  _4
REMARK                            x       y       z     vdW  Elec       q    Type
REMARK                         _______ _______ _______ _____ _____    ______ ____
ROOT
ATOM      1  C   UNL     1       1.229   1.532   0.116  0.00  0.00    +0.193 C 
ATOM      2  C   UNL     1       0.329   0.393   0.657  0.00  0.00    +0.111 C 
ATOM      3  C   UNL     1      -1.063   0.486   0.109  0.00  0.00    -0.028 A 
ATOM      4  C   UNL     1      -1.836   1.476   0.749  0.00  0.00    +0.054 A 
ATOM      5  C   UNL     1      -3.141   1.693   0.375  0.00  0.00    +0.167 A 
ATOM      6  O   UNL     1      -4.024   2.593   0.907  0.00  0.00    -0.453 OA
ATOM      7  C   UNL     1      -5.291   2.158   0.354  0.00  0.00    +0.466 C 
ATOM      8  O   UNL     1      -5.021   1.365  -0.825  0.00  0.00    -0.453 OA
ATOM      9  C   UNL     1      -3.731   0.992  -0.631  0.00  0.00    +0.167 A 
ATOM     10  C   UNL     1      -3.012   0.035  -1.299  0.00  0.00    +0.053 A 
ATOM     11  C   UNL     1      -1.679  -0.242  -0.933  0.00  0.00    -0.035 A 
ATOM     12  C   UNL     1      -1.056  -1.326  -1.754  0.00  0.00    +0.086 C 
ATOM     13  C   UNL     1      -0.329  -2.278  -0.852  0.00  0.00    +0.137 C 
ATOM     14  N   UNL     1       1.044  -1.748  -0.598  0.00  0.00    +0.243 N 
ATOM     15  H   UNL     1       1.382  -1.256  -1.438  0.00  0.00    +0.204 HD
ATOM     16  C   UNL     1       1.954  -2.880  -0.261  0.00  0.00    +0.132 C 
ATOM     17  C   UNL     1       1.690  -3.119   1.226  0.00  0.00    +0.057 C 
ATOM     18  C   UNL     1       1.031  -1.837   1.748  0.00  0.00    +0.068 C 
ATOM     19  C   UNL     1       1.187  -0.865   0.592  0.00  0.00    +0.022 C 
ATOM     20  C   UNL     1       2.565  -0.295   0.633  0.00  0.00    +0.074 C 
ATOM     21  C   UNL     1       2.586   0.997   0.368  0.00  0.00    +0.128 C 
ENDROOT
BRANCH   1  22
ATOM     22  O   UNL     1       1.044   1.727  -1.275  0.00  0.00    -0.383 OA
ATOM     23  H   UNL     1       0.778   2.663  -1.397  0.00  0.00    +0.210 HD
ENDBRANCH   1  22
BRANCH  21  24
ATOM     24  O   UNL     1       3.760   1.714   0.337  0.00  0.00    -0.497 OA
ATOM     25  C   UNL     1       3.746   3.037  -0.188  0.00  0.00    +0.276 C 
ENDBRANCH  21  24
TORSDOF 2
