REMARK  Name = DB04865Prodrug_3.pdb
REMARK  3 active torsions:
REMARK  status: ('A' for Active; 'I' for Inactive)
REMARK    1  A    between atoms: _1  and  _23
REMARK    2  A    between atoms: _2  and  _3
REMARK    3  A    between atoms: _3  and  _4
REMARK                            x       y       z     vdW  Elec       q    Type
REMARK                         _______ _______ _______ _____ _____    ______ ____
ROOT
ATOM      1  C   UNL     1       1.331   1.107   1.266  0.00  0.00    +0.193 C 
ATOM      2  C   UNL     1       0.304  -0.124   0.902  0.00  0.00    +0.111 C 
ATOM      3  C   UNL     1      -1.034   0.300   0.218  0.00  0.00    -0.028 A 
ATOM      4  C   UNL     1      -1.365   1.640   0.052  0.00  0.00    +0.054 A 
ATOM      5  C   UNL     1      -2.601   1.997  -0.495  0.00  0.00    +0.167 A 
ATOM      6  O   UNL     1      -3.033   3.262  -0.702  0.00  0.00    -0.453 OA
ATOM      7  C   UNL     1      -4.460   2.927  -0.966  0.00  0.00    +0.466 C 
ATOM      8  O   UNL     1      -4.660   1.560  -1.433  0.00  0.00    -0.453 OA
ATOM      9  C   UNL     1      -3.470   0.996  -0.897  0.00  0.00    +0.167 A 
ATOM     10  C   UNL     1      -3.213  -0.305  -0.797  0.00  0.00    +0.053 A 
ATOM     11  C   UNL     1      -2.009  -0.688  -0.211  0.00  0.00    -0.035 A 
ATOM     12  C   UNL     1      -1.670  -2.130  -0.157  0.00  0.00    +0.086 C 
ATOM     13  C   UNL     1      -0.595  -2.400  -1.202  0.00  0.00    +0.137 C 
ATOM     14  N   UNL     1       0.827  -2.207  -0.651  0.00  0.00    +0.243 N 
ATOM     15  H   UNL     1       1.370  -2.262  -1.479  0.00  0.00    +0.204 HD
ATOM     16  C   UNL     1       1.268  -3.356   0.183  0.00  0.00    +0.132 C 
ATOM     17  C   UNL     1       2.620  -2.923   0.546  0.00  0.00    +0.057 C 
ATOM     18  C   UNL     1       2.364  -1.508   0.975  0.00  0.00    +0.068 C 
ATOM     19  C   UNL     1       1.264  -0.950   0.055  0.00  0.00    +0.022 C 
ATOM     20  C   UNL     1       1.851   0.155  -0.825  0.00  0.00    +0.074 C 
ATOM     21  C   UNL     1       1.907   1.296  -0.119  0.00  0.00    +0.128 C 
ENDROOT
BRANCH   1  22
ATOM     22  O   UNL     1       0.773   2.179   1.956  0.00  0.00    -0.383 OA
ATOM     23  H   UNL     1       1.365   2.392   2.677  0.00  0.00    +0.210 HD
ENDBRANCH   1  22
BRANCH  21  24
ATOM     24  O   UNL     1       2.448   2.425  -0.659  0.00  0.00    -0.497 OA
ATOM     25  C   UNL     1       2.568   3.631   0.140  0.00  0.00    +0.276 C 
ENDBRANCH  21  24
TORSDOF 2
