REMARK  Name = DB04865_4.pdb
REMARK  17 active torsions:
REMARK  status: ('A' for Active; 'I' for Inactive)
REMARK    1  A    between atoms: _1  and  _2
REMARK    2  A    between atoms: _2  and  _3
REMARK    3  A    between atoms: _3  and  _5
REMARK    4  A    between atoms: _5  and  _6
REMARK    5  A    between atoms: _5  and  _7
REMARK    6  A    between atoms: _5  and  _14
REMARK    7  A    between atoms: _7  and  _8
REMARK    8  A    between atoms: _8  and  _9
REMARK    9  A    between atoms: _9  and  _10
REMARK   10  A    between atoms: _10  and  _11
REMARK   11  A    between atoms: _10  and  _12
REMARK   12  A    between atoms: _10  and  _13
REMARK   13  A    between atoms: _14  and  _15
REMARK   14  A    between atoms: _15  and  _17
REMARK   15  A    between atoms: _17  and  _18
REMARK   16  A    between atoms: _19  and  _20
REMARK   17  A    between atoms: _20  and  _21
REMARK                            x       y       z     vdW  Elec       q    Type
REMARK                         _______ _______ _______ _____ _____    ______ ____
ROOT
ATOM      1  C   UNL     1      -1.280  -0.337  -1.179  0.00  0.00    +0.254 C 
ATOM      2  C   UNL     1      -2.284  -0.959  -0.079  0.00  0.00    +0.123 C 
ATOM      3  C   UNL     1      -2.978  -0.011   0.937  0.00  0.00    -0.027 A 
ATOM      4  C   UNL     1      -2.820   1.409   0.861  0.00  0.00    +0.054 A 
ATOM      5  C   UNL     1      -3.475   2.219   1.766  0.00  0.00    +0.167 A 
ATOM      6  O   UNL     1      -3.364   3.559   1.806  0.00  0.00    -0.453 OA
ATOM      7  C   UNL     1      -4.033   3.809   3.097  0.00  0.00    +0.466 C 
ATOM      8  O   UNL     1      -4.863   2.649   3.483  0.00  0.00    -0.453 OA
ATOM      9  C   UNL     1      -4.299   1.702   2.682  0.00  0.00    +0.167 A 
ATOM     10  C   UNL     1      -4.530   0.377   2.772  0.00  0.00    +0.053 A 
ATOM     11  C   UNL     1      -3.865  -0.533   1.895  0.00  0.00    -0.035 A 
ATOM     12  C   UNL     1      -4.185  -1.975   2.058  0.00  0.00    +0.086 C 
ATOM     13  C   UNL     1      -4.461  -2.735   0.823  0.00  0.00    +0.137 C 
ATOM     14  N   UNL     1      -4.625  -1.821  -0.401  0.00  0.00    +0.243 N 
ATOM     15  H   UNL     1      -5.084  -0.927  -0.090  0.00  0.00    +0.204 HD
ATOM     16  C   UNL     1      -5.337  -2.527  -1.469  0.00  0.00    +0.132 C 
ATOM     17  C   UNL     1      -4.233  -3.350  -2.135  0.00  0.00    +0.057 C 
ATOM     18  C   UNL     1      -2.906  -2.778  -1.716  0.00  0.00    +0.068 C 
ATOM     19  C   UNL     1      -3.315  -1.460  -1.035  0.00  0.00    +0.023 C 
ATOM     20  C   UNL     1      -3.414  -0.367  -2.103  0.00  0.00    +0.075 C 
ATOM     21  C   UNL     1      -2.284   0.240  -2.145  0.00  0.00    +0.140 C 
ENDROOT
BRANCH  21  22
ATOM     22  O   UNL     1      -1.989   1.317  -2.907  0.00  0.00    -0.496 OA
ATOM     23  C   UNL     1      -1.377   0.972  -4.165  0.00  0.00    +0.276 C 
ENDBRANCH  21  22
BRANCH   1  24
ATOM     24  O   UNL     1      -0.265   0.604  -0.598  0.00  0.00    -0.451 OA
BRANCH  24  25
ATOM     25  C   UNL     1       0.966   0.321  -0.960  0.00  0.00    +0.340 C 
ATOM     26  O   UNL     1       1.360  -0.738  -1.634  0.00  0.00    -0.248 OA
BRANCH  25  27
ATOM     27  C   UNL     1       2.024   1.264  -0.402  0.00  0.00    +0.172 C 
BRANCH  27  28
ATOM     28  O   UNL     1       1.416   2.359   0.351  0.00  0.00    -0.377 OA
ATOM     29  H   UNL     1       1.313   2.014   1.225  0.00  0.00    +0.211 HD
ENDBRANCH  27  28
BRANCH  27  30
ATOM     30  C   UNL     1       2.835   1.751  -1.683  0.00  0.00    +0.166 C 
BRANCH  30  31
ATOM     31  C   UNL     1       3.937   2.842  -1.419  0.00  0.00    +0.310 C 
ATOM     32  O   UNL     1       3.930   3.581  -0.406  0.00  0.00    -0.251 OA
BRANCH  31  33
ATOM     33  O   UNL     1       4.772   2.877  -2.439  0.00  0.00    -0.468 OA
ATOM     34  C   UNL     1       5.848   3.904  -2.340  0.00  0.00    +0.280 C 
ENDBRANCH  31  33
ENDBRANCH  30  31
ENDBRANCH  27  30
BRANCH  27  35
ATOM     35  C   UNL     1       2.836   0.355   0.477  0.00  0.00    +0.047 C 
BRANCH  35  36
ATOM     36  C   UNL     1       4.084   0.985   1.260  0.00  0.00    +0.006 C 
BRANCH  36  37
ATOM     37  C   UNL     1       4.626  -0.010   2.236  0.00  0.00    +0.034 C 
BRANCH  37  38
ATOM     38  C   UNL     1       5.203  -1.326   1.617  0.00  0.00    +0.061 C 
ATOM     39  C   UNL     1       6.278  -1.096   0.543  0.00  0.00    +0.041 C 
ATOM     40  C   UNL     1       5.790  -2.054   2.764  0.00  0.00    +0.041 C 
BRANCH  38  41
ATOM     41  O   UNL     1       4.157  -2.116   1.050  0.00  0.00    -0.389 OA
ATOM     42  H   UNL     1       3.784  -2.628   1.764  0.00  0.00    +0.210 HD
ENDBRANCH  38  41
ENDBRANCH  37  38
ENDBRANCH  36  37
ENDBRANCH  35  36
ENDBRANCH  27  35
ENDBRANCH  25  27
ENDBRANCH  24  25
ENDBRANCH   1  24
TORSDOF 13
