REMARK  Name = DB04060_0.pdb
REMARK  7 active torsions:
REMARK  status: ('A' for Active; 'I' for Inactive)
REMARK    1  A    between atoms: _1  and  _20
REMARK    2  A    between atoms: _3  and  _12
REMARK    3  A    between atoms: _5  and  _6
REMARK    4  A    between atoms: _6  and  _7
REMARK    5  A    between atoms: _7  and  _8
REMARK    6  A    between atoms: _15  and  _19
REMARK    7  A    between atoms: _16  and  _17
REMARK                            x       y       z     vdW  Elec       q    Type
REMARK                         _______ _______ _______ _____ _____    ______ ____
ROOT
ATOM      1  C   UNL     1       1.760  -1.000   0.954  0.00  0.00    +0.148 C 
ATOM      2  C   UNL     1       2.258   0.210   0.184  0.00  0.00    +0.173 C 
ATOM      3  O   UNL     1       1.068   1.132  -0.020  0.00  0.00    -0.364 OA
ATOM      4  C   UNL     1      -0.005   0.476   0.710  0.00  0.00    +0.153 C 
ATOM      5  C   UNL     1       0.287  -0.973   0.668  0.00  0.00    +0.070 C 
ENDROOT
BRANCH   4   6
ATOM      6  C   UNL     1      -1.322   0.671   0.071  0.00  0.00    -0.000 A 
ATOM      7  C   UNL     1      -2.449   0.673   0.883  0.00  0.00    +0.016 A 
ATOM      8  C   UNL     1      -3.714   0.431   0.340  0.00  0.00    +0.011 A 
ATOM      9  C   UNL     1      -4.878   0.343   1.253  0.00  0.00    +0.049 C 
ATOM     10  C   UNL     1      -3.799   0.276  -1.036  0.00  0.00    +0.215 A 
ATOM     11  N   UNL     1      -2.724   0.337  -1.868  0.00  0.00    -0.221 NA
ATOM     12  C   UNL     1      -1.503   0.541  -1.287  0.00  0.00    +0.120 A 
BRANCH  10  13
ATOM     13  O   UNL     1      -4.991   0.003  -1.671  0.00  0.00    -0.492 OA
ATOM     14  H   UNL     1      -5.492  -0.664  -1.184  0.00  0.00    +0.294 HD
ENDBRANCH  10  13
ENDBRANCH   4   6
BRANCH   1  15
ATOM     15  O   UNL     1       1.926  -0.821   2.374  0.00  0.00    -0.389 OA
ATOM     16  H   UNL     1       2.866  -0.565   2.497  0.00  0.00    +0.210 HD
ENDBRANCH   1  15
BRANCH   2  17
ATOM     17  C   UNL     1       2.775  -0.174  -1.178  0.00  0.00    +0.197 C 
BRANCH  17  18
ATOM     18  O   UNL     1       3.780   0.743  -1.595  0.00  0.00    -0.365 OA
BRANCH  18  19
ATOM     19  P   UNL     1       5.360   0.234  -1.468  0.00  0.00    -0.015 P 
ATOM     20  O   UNL     1       5.256  -1.259  -1.242  0.00  0.00    -0.638 OA
ATOM     21  O   UNL     1       5.840   0.963  -0.252  0.00  0.00    -0.577 OA
ATOM     22  O   UNL     1       6.005   0.590  -2.762  0.00  0.00    -0.577 OA
ENDBRANCH  18  19
ENDBRANCH  17  18
ENDBRANCH   2  17
TORSDOF 6
