REMARK  Name = DB04060_1.pdb
REMARK  7 active torsions:
REMARK  status: ('A' for Active; 'I' for Inactive)
REMARK    1  A    between atoms: _1  and  _20
REMARK    2  A    between atoms: _3  and  _12
REMARK    3  A    between atoms: _5  and  _6
REMARK    4  A    between atoms: _6  and  _7
REMARK    5  A    between atoms: _7  and  _8
REMARK    6  A    between atoms: _15  and  _19
REMARK    7  A    between atoms: _16  and  _17
REMARK                            x       y       z     vdW  Elec       q    Type
REMARK                         _______ _______ _______ _____ _____    ______ ____
ROOT
ATOM      1  C   UNL     1       1.873  -1.309  -0.592  0.00  0.00    +0.148 C 
ATOM      2  C   UNL     1       2.053  -0.211   0.501  0.00  0.00    +0.173 C 
ATOM      3  O   UNL     1       0.689   0.287   0.760  0.00  0.00    -0.364 OA
ATOM      4  C   UNL     1      -0.103  -0.891   0.553  0.00  0.00    +0.153 C 
ATOM      5  C   UNL     1       0.383  -1.430  -0.782  0.00  0.00    +0.070 C 
ENDROOT
BRANCH   4   6
ATOM      6  C   UNL     1      -1.568  -0.554   0.625  0.00  0.00    -0.000 A 
ATOM      7  C   UNL     1      -2.150   0.493  -0.099  0.00  0.00    +0.016 A 
ATOM      8  C   UNL     1      -3.501   0.738  -0.026  0.00  0.00    +0.011 A 
ATOM      9  C   UNL     1      -4.134   1.860  -0.785  0.00  0.00    +0.049 C 
ATOM     10  C   UNL     1      -4.241  -0.094   0.814  0.00  0.00    +0.215 A 
ATOM     11  N   UNL     1      -3.774  -1.124   1.529  0.00  0.00    -0.221 NA
ATOM     12  C   UNL     1      -2.427  -1.309   1.417  0.00  0.00    +0.120 A 
BRANCH  10  13
ATOM     13  O   UNL     1      -5.575   0.114   0.917  0.00  0.00    -0.492 OA
ATOM     14  H   UNL     1      -5.908  -0.690   1.390  0.00  0.00    +0.294 HD
ENDBRANCH  10  13
ENDBRANCH   4   6
BRANCH   1  15
ATOM     15  O   UNL     1       2.300  -2.607  -0.095  0.00  0.00    -0.389 OA
ATOM     16  H   UNL     1       2.223  -3.212  -0.833  0.00  0.00    +0.210 HD
ENDBRANCH   1  15
BRANCH   2  17
ATOM     17  C   UNL     1       3.002   0.896   0.101  0.00  0.00    +0.197 C 
BRANCH  17  18
ATOM     18  O   UNL     1       4.296   0.420  -0.119  0.00  0.00    -0.365 OA
BRANCH  18  19
ATOM     19  P   UNL     1       5.409   1.526  -0.581  0.00  0.00    -0.015 P 
ATOM     20  O   UNL     1       6.022   1.930   0.814  0.00  0.00    -0.638 OA
ATOM     21  O   UNL     1       6.329   0.735  -1.471  0.00  0.00    -0.577 OA
ATOM     22  O   UNL     1       4.589   2.623  -1.207  0.00  0.00    -0.577 OA
ENDBRANCH  18  19
ENDBRANCH  17  18
ENDBRANCH   2  17
TORSDOF 6
