REMARK  Name = DB04060_4.pdb
REMARK  7 active torsions:
REMARK  status: ('A' for Active; 'I' for Inactive)
REMARK    1  A    between atoms: _1  and  _20
REMARK    2  A    between atoms: _3  and  _12
REMARK    3  A    between atoms: _5  and  _6
REMARK    4  A    between atoms: _6  and  _7
REMARK    5  A    between atoms: _7  and  _8
REMARK    6  A    between atoms: _15  and  _19
REMARK    7  A    between atoms: _16  and  _17
REMARK                            x       y       z     vdW  Elec       q    Type
REMARK                         _______ _______ _______ _____ _____    ______ ____
ROOT
ATOM      1  C   UNL     1       1.727  -1.707   0.447  0.00  0.00    +0.148 C 
ATOM      2  C   UNL     1       2.177  -0.399  -0.178  0.00  0.00    +0.173 C 
ATOM      3  O   UNL     1       0.978  -0.028  -0.876  0.00  0.00    -0.364 OA
ATOM      4  C   UNL     1       0.059  -0.034   0.206  0.00  0.00    +0.153 C 
ATOM      5  C   UNL     1       0.371  -1.294   1.013  0.00  0.00    +0.070 C 
ENDROOT
BRANCH   4   6
ATOM      6  C   UNL     1      -1.367   0.001  -0.214  0.00  0.00    -0.000 A 
ATOM      7  C   UNL     1      -2.262   0.642   0.653  0.00  0.00    +0.016 A 
ATOM      8  C   UNL     1      -3.615   0.624   0.376  0.00  0.00    +0.011 A 
ATOM      9  C   UNL     1      -4.534   1.306   1.327  0.00  0.00    +0.049 C 
ATOM     10  C   UNL     1      -4.035  -0.015  -0.777  0.00  0.00    +0.215 A 
ATOM     11  N   UNL     1      -3.185  -0.624  -1.626  0.00  0.00    -0.221 NA
ATOM     12  C   UNL     1      -1.867  -0.617  -1.341  0.00  0.00    +0.120 A 
BRANCH  10  13
ATOM     13  O   UNL     1      -5.371  -0.060  -1.079  0.00  0.00    -0.492 OA
ATOM     14  H   UNL     1      -5.660   0.780  -1.500  0.00  0.00    +0.294 HD
ENDBRANCH  10  13
ENDBRANCH   4   6
BRANCH   1  15
ATOM     15  O   UNL     1       2.539  -2.217   1.476  0.00  0.00    -0.389 OA
ATOM     16  H   UNL     1       3.088  -2.939   1.114  0.00  0.00    +0.210 HD
ENDBRANCH   1  15
BRANCH   2  17
ATOM     17  C   UNL     1       3.396  -0.437  -1.050  0.00  0.00    +0.197 C 
BRANCH  17  18
ATOM     18  O   UNL     1       3.597   0.879  -1.525  0.00  0.00    -0.365 OA
BRANCH  18  19
ATOM     19  P   UNL     1       4.721   1.798  -0.741  0.00  0.00    -0.015 P 
ATOM     20  O   UNL     1       3.936   2.418   0.429  0.00  0.00    -0.638 OA
ATOM     21  O   UNL     1       5.195   2.893  -1.733  0.00  0.00    -0.577 OA
ATOM     22  O   UNL     1       5.855   0.856  -0.250  0.00  0.00    -0.577 OA
ENDBRANCH  18  19
ENDBRANCH  17  18
ENDBRANCH   2  17
TORSDOF 6
