REMARK  Name = DB04865Prodrug_0.pdb
REMARK  3 active torsions:
REMARK  status: ('A' for Active; 'I' for Inactive)
REMARK    1  A    between atoms: _1  and  _23
REMARK    2  A    between atoms: _2  and  _3
REMARK    3  A    between atoms: _3  and  _4
REMARK                            x       y       z     vdW  Elec       q    Type
REMARK                         _______ _______ _______ _____ _____    ______ ____
ROOT
ATOM      1  C   UNL     1       1.213   1.151   1.400  0.00  0.00    +0.193 C 
ATOM      2  C   UNL     1       0.219   0.029   1.066  0.00  0.00    +0.111 C 
ATOM      3  C   UNL     1      -1.076   0.343   0.361  0.00  0.00    -0.028 A 
ATOM      4  C   UNL     1      -1.402   1.644   0.024  0.00  0.00    +0.054 A 
ATOM      5  C   UNL     1      -2.570   1.928  -0.638  0.00  0.00    +0.167 A 
ATOM      6  O   UNL     1      -3.019   3.156  -1.053  0.00  0.00    -0.453 OA
ATOM      7  C   UNL     1      -4.311   2.892  -1.617  0.00  0.00    +0.466 C 
ATOM      8  O   UNL     1      -4.553   1.479  -1.661  0.00  0.00    -0.453 OA
ATOM      9  C   UNL     1      -3.467   0.945  -0.993  0.00  0.00    +0.167 A 
ATOM     10  C   UNL     1      -3.199  -0.356  -0.683  0.00  0.00    +0.053 A 
ATOM     11  C   UNL     1      -2.006  -0.686  -0.010  0.00  0.00    -0.035 A 
ATOM     12  C   UNL     1      -1.899  -2.164   0.193  0.00  0.00    +0.086 C 
ATOM     13  C   UNL     1      -0.477  -2.675   0.305  0.00  0.00    +0.137 C 
ATOM     14  N   UNL     1       0.450  -1.902  -0.568  0.00  0.00    +0.243 N 
ATOM     15  H   UNL     1      -0.073  -1.496  -1.361  0.00  0.00    +0.204 HD
ATOM     16  C   UNL     1       1.552  -2.753  -1.090  0.00  0.00    +0.132 C 
ATOM     17  C   UNL     1       2.513  -2.846   0.092  0.00  0.00    +0.057 C 
ATOM     18  C   UNL     1       2.203  -1.631   0.970  0.00  0.00    +0.068 C 
ATOM     19  C   UNL     1       1.151  -0.843   0.182  0.00  0.00    +0.022 C 
ATOM     20  C   UNL     1       1.805   0.229  -0.638  0.00  0.00    +0.074 C 
ATOM     21  C   UNL     1       1.854   1.361   0.057  0.00  0.00    +0.128 C 
ENDROOT
BRANCH   1  22
ATOM     22  O   UNL     1       0.676   2.279   2.009  0.00  0.00    -0.383 OA
ATOM     23  H   UNL     1       0.059   1.994   2.686  0.00  0.00    +0.210 HD
ENDBRANCH   1  22
BRANCH  21  24
ATOM     24  O   UNL     1       2.265   2.556  -0.483  0.00  0.00    -0.497 OA
ATOM     25  C   UNL     1       3.188   3.348   0.251  0.00  0.00    +0.276 C 
ENDBRANCH  21  24
TORSDOF 2
