REMARK  Name = DB04060_3.pdb
REMARK  7 active torsions:
REMARK  status: ('A' for Active; 'I' for Inactive)
REMARK    1  A    between atoms: _1  and  _20
REMARK    2  A    between atoms: _3  and  _12
REMARK    3  A    between atoms: _5  and  _6
REMARK    4  A    between atoms: _6  and  _7
REMARK    5  A    between atoms: _7  and  _8
REMARK    6  A    between atoms: _15  and  _19
REMARK    7  A    between atoms: _16  and  _17
REMARK                            x       y       z     vdW  Elec       q    Type
REMARK                         _______ _______ _______ _____ _____    ______ ____
ROOT
ATOM      1  C   UNL     1       1.826  -0.639   1.059  0.00  0.00    +0.148 C 
ATOM      2  C   UNL     1       2.080   0.395  -0.070  0.00  0.00    +0.173 C 
ATOM      3  O   UNL     1       0.773   0.580  -0.680  0.00  0.00    -0.364 OA
ATOM      4  C   UNL     1      -0.147   0.652   0.414  0.00  0.00    +0.153 C 
ATOM      5  C   UNL     1       0.348  -0.437   1.385  0.00  0.00    +0.070 C 
ENDROOT
BRANCH   4   6
ATOM      6  C   UNL     1      -1.583   0.599  -0.010  0.00  0.00    -0.000 A 
ATOM      7  C   UNL     1      -2.563  -0.034   0.760  0.00  0.00    +0.016 A 
ATOM      8  C   UNL     1      -3.911  -0.035   0.354  0.00  0.00    +0.011 A 
ATOM      9  C   UNL     1      -4.922  -0.744   1.154  0.00  0.00    +0.049 C 
ATOM     10  C   UNL     1      -4.176   0.642  -0.823  0.00  0.00    +0.215 A 
ATOM     11  N   UNL     1      -3.313   1.234  -1.611  0.00  0.00    -0.221 NA
ATOM     12  C   UNL     1      -2.012   1.247  -1.181  0.00  0.00    +0.120 A 
BRANCH  10  13
ATOM     13  O   UNL     1      -5.447   0.645  -1.251  0.00  0.00    -0.492 OA
ATOM     14  H   UNL     1      -5.206   0.564  -2.320  0.00  0.00    +0.294 HD
ENDBRANCH  10  13
ENDBRANCH   4   6
BRANCH   1  15
ATOM     15  O   UNL     1       2.586  -0.552   2.264  0.00  0.00    -0.389 OA
ATOM     16  H   UNL     1       3.543  -0.636   1.917  0.00  0.00    +0.210 HD
ENDBRANCH   1  15
BRANCH   2  17
ATOM     17  C   UNL     1       3.126   0.046  -1.109  0.00  0.00    +0.197 C 
BRANCH  17  18
ATOM     18  O   UNL     1       4.370   0.067  -0.435  0.00  0.00    -0.365 OA
BRANCH  18  19
ATOM     19  P   UNL     1       5.645  -0.368  -1.352  0.00  0.00    -0.015 P 
ATOM     20  O   UNL     1       6.578   0.874  -1.255  0.00  0.00    -0.638 OA
ATOM     21  O   UNL     1       6.113  -1.585  -0.569  0.00  0.00    -0.577 OA
ATOM     22  O   UNL     1       5.066  -0.618  -2.725  0.00  0.00    -0.577 OA
ENDBRANCH  18  19
ENDBRANCH  17  18
ENDBRANCH   2  17
TORSDOF 6
