REMARK  Name = DB04865_1.pdb
REMARK  17 active torsions:
REMARK  status: ('A' for Active; 'I' for Inactive)
REMARK    1  A    between atoms: _1  and  _2
REMARK    2  A    between atoms: _2  and  _3
REMARK    3  A    between atoms: _3  and  _5
REMARK    4  A    between atoms: _5  and  _6
REMARK    5  A    between atoms: _5  and  _7
REMARK    6  A    between atoms: _5  and  _14
REMARK    7  A    between atoms: _7  and  _8
REMARK    8  A    between atoms: _8  and  _9
REMARK    9  A    between atoms: _9  and  _10
REMARK   10  A    between atoms: _10  and  _11
REMARK   11  A    between atoms: _10  and  _12
REMARK   12  A    between atoms: _10  and  _13
REMARK   13  A    between atoms: _14  and  _15
REMARK   14  A    between atoms: _15  and  _17
REMARK   15  A    between atoms: _17  and  _18
REMARK   16  A    between atoms: _19  and  _20
REMARK   17  A    between atoms: _20  and  _21
REMARK                            x       y       z     vdW  Elec       q    Type
REMARK                         _______ _______ _______ _____ _____    ______ ____
ROOT
ATOM      1  C   UNL     1      -0.591  -0.905  -1.481  0.00  0.00    +0.254 C 
ATOM      2  C   UNL     1      -1.972  -1.247  -0.704  0.00  0.00    +0.123 C 
ATOM      3  C   UNL     1      -1.974  -0.800   0.779  0.00  0.00    -0.027 A 
ATOM      4  C   UNL     1      -1.053  -1.558   1.548  0.00  0.00    +0.054 A 
ATOM      5  C   UNL     1      -0.910  -1.222   2.927  0.00  0.00    +0.167 A 
ATOM      6  O   UNL     1      -0.028  -1.893   3.742  0.00  0.00    -0.453 OA
ATOM      7  C   UNL     1      -0.452  -1.203   4.971  0.00  0.00    +0.466 C 
ATOM      8  O   UNL     1      -1.387  -0.039   4.827  0.00  0.00    -0.453 OA
ATOM      9  C   UNL     1      -1.639  -0.224   3.462  0.00  0.00    +0.167 A 
ATOM     10  C   UNL     1      -2.530   0.535   2.743  0.00  0.00    +0.053 A 
ATOM     11  C   UNL     1      -2.717   0.234   1.372  0.00  0.00    -0.035 A 
ATOM     12  C   UNL     1      -3.738   1.113   0.738  0.00  0.00    +0.086 C 
ATOM     13  C   UNL     1      -4.653   0.291  -0.153  0.00  0.00    +0.137 C 
ATOM     14  N   UNL     1      -3.996   0.223  -1.523  0.00  0.00    +0.243 N 
ATOM     15  H   UNL     1      -3.463   1.037  -1.698  0.00  0.00    +0.204 HD
ATOM     16  C   UNL     1      -5.102  -0.027  -2.598  0.00  0.00    +0.132 C 
ATOM     17  C   UNL     1      -5.208  -1.542  -2.706  0.00  0.00    +0.057 C 
ATOM     18  C   UNL     1      -4.145  -2.150  -1.818  0.00  0.00    +0.068 C 
ATOM     19  C   UNL     1      -3.141  -0.994  -1.716  0.00  0.00    +0.023 C 
ATOM     20  C   UNL     1      -2.413  -0.885  -3.040  0.00  0.00    +0.075 C 
ATOM     21  C   UNL     1      -1.072  -0.857  -2.864  0.00  0.00    +0.140 C 
ENDROOT
BRANCH  21  22
ATOM     22  O   UNL     1      -0.223  -0.730  -3.944  0.00  0.00    -0.496 OA
ATOM     23  C   UNL     1       0.047  -1.972  -4.535  0.00  0.00    +0.276 C 
ENDBRANCH  21  22
BRANCH   1  24
ATOM     24  O   UNL     1      -0.137   0.339  -1.045  0.00  0.00    -0.451 OA
BRANCH  24  25
ATOM     25  C   UNL     1       1.159   0.239  -0.511  0.00  0.00    +0.340 C 
ATOM     26  O   UNL     1       1.841  -0.749  -0.432  0.00  0.00    -0.248 OA
BRANCH  25  27
ATOM     27  C   UNL     1       1.639   1.660  -0.039  0.00  0.00    +0.172 C 
BRANCH  27  28
ATOM     28  O   UNL     1       0.575   2.685  -0.119  0.00  0.00    -0.377 OA
ATOM     29  H   UNL     1       0.924   3.453   0.374  0.00  0.00    +0.211 HD
ENDBRANCH  27  28
BRANCH  27  30
ATOM     30  C   UNL     1       2.778   2.100  -0.957  0.00  0.00    +0.166 C 
BRANCH  30  31
ATOM     31  C   UNL     1       2.216   2.365  -2.373  0.00  0.00    +0.310 C 
ATOM     32  O   UNL     1       2.061   1.426  -3.159  0.00  0.00    -0.251 OA
BRANCH  31  33
ATOM     33  O   UNL     1       1.913   3.673  -2.545  0.00  0.00    -0.468 OA
ATOM     34  C   UNL     1       1.371   3.925  -3.841  0.00  0.00    +0.280 C 
ENDBRANCH  31  33
ENDBRANCH  30  31
ENDBRANCH  27  30
BRANCH  27  35
ATOM     35  C   UNL     1       1.948   1.638   1.471  0.00  0.00    +0.047 C 
BRANCH  35  36
ATOM     36  C   UNL     1       2.824   0.586   2.177  0.00  0.00    +0.006 C 
BRANCH  36  37
ATOM     37  C   UNL     1       4.279   0.498   1.731  0.00  0.00    +0.034 C 
BRANCH  37  38
ATOM     38  C   UNL     1       5.065  -0.572   2.510  0.00  0.00    +0.061 C 
ATOM     39  C   UNL     1       4.555  -1.966   2.181  0.00  0.00    +0.041 C 
ATOM     40  C   UNL     1       4.993  -0.307   4.002  0.00  0.00    +0.041 C 
BRANCH  38  41
ATOM     41  O   UNL     1       6.428  -0.451   2.118  0.00  0.00    -0.389 OA
ATOM     42  H   UNL     1       6.462  -0.585   1.161  0.00  0.00    +0.210 HD
ENDBRANCH  38  41
ENDBRANCH  37  38
ENDBRANCH  36  37
ENDBRANCH  35  36
ENDBRANCH  27  35
ENDBRANCH  25  27
ENDBRANCH  24  25
ENDBRANCH   1  24
TORSDOF 13
