REMARK  Name = DB04865_0.pdb
REMARK  17 active torsions:
REMARK  status: ('A' for Active; 'I' for Inactive)
REMARK    1  A    between atoms: _1  and  _2
REMARK    2  A    between atoms: _2  and  _3
REMARK    3  A    between atoms: _3  and  _5
REMARK    4  A    between atoms: _5  and  _6
REMARK    5  A    between atoms: _5  and  _7
REMARK    6  A    between atoms: _5  and  _14
REMARK    7  A    between atoms: _7  and  _8
REMARK    8  A    between atoms: _8  and  _9
REMARK    9  A    between atoms: _9  and  _10
REMARK   10  A    between atoms: _10  and  _11
REMARK   11  A    between atoms: _10  and  _12
REMARK   12  A    between atoms: _10  and  _13
REMARK   13  A    between atoms: _14  and  _15
REMARK   14  A    between atoms: _15  and  _17
REMARK   15  A    between atoms: _17  and  _18
REMARK   16  A    between atoms: _19  and  _20
REMARK   17  A    between atoms: _20  and  _21
REMARK                            x       y       z     vdW  Elec       q    Type
REMARK                         _______ _______ _______ _____ _____    ______ ____
ROOT
ATOM      1  C   UNL     1      -0.689  -0.994  -0.277  0.00  0.00    +0.254 C 
ATOM      2  C   UNL     1      -2.066  -0.805   0.541  0.00  0.00    +0.123 C 
ATOM      3  C   UNL     1      -2.742   0.623   0.718  0.00  0.00    -0.027 A 
ATOM      4  C   UNL     1      -2.090   1.704   0.142  0.00  0.00    +0.054 A 
ATOM      5  C   UNL     1      -2.749   2.907   0.192  0.00  0.00    +0.167 A 
ATOM      6  O   UNL     1      -2.228   4.119  -0.370  0.00  0.00    -0.453 OA
ATOM      7  C   UNL     1      -3.466   4.862  -0.167  0.00  0.00    +0.466 C 
ATOM      8  O   UNL     1      -4.489   4.365   0.693  0.00  0.00    -0.453 OA
ATOM      9  C   UNL     1      -3.995   3.093   0.782  0.00  0.00    +0.167 A 
ATOM     10  C   UNL     1      -4.689   2.039   1.379  0.00  0.00    +0.053 A 
ATOM     11  C   UNL     1      -4.042   0.794   1.334  0.00  0.00    -0.035 A 
ATOM     12  C   UNL     1      -4.880  -0.353   1.887  0.00  0.00    +0.086 C 
ATOM     13  C   UNL     1      -4.890  -1.685   1.127  0.00  0.00    +0.137 C 
ATOM     14  N   UNL     1      -4.455  -1.543  -0.298  0.00  0.00    +0.243 N 
ATOM     15  H   UNL     1      -4.708  -0.619  -0.674  0.00  0.00    +0.204 HD
ATOM     16  C   UNL     1      -5.023  -2.633  -1.167  0.00  0.00    +0.132 C 
ATOM     17  C   UNL     1      -4.085  -3.811  -0.830  0.00  0.00    +0.057 C 
ATOM     18  C   UNL     1      -2.765  -3.220  -0.348  0.00  0.00    +0.068 C 
ATOM     19  C   UNL     1      -2.976  -1.693  -0.483  0.00  0.00    +0.023 C 
ATOM     20  C   UNL     1      -2.420  -1.182  -1.833  0.00  0.00    +0.075 C 
ATOM     21  C   UNL     1      -1.151  -0.699  -1.729  0.00  0.00    +0.140 C 
ENDROOT
BRANCH  21  22
ATOM     22  O   UNL     1      -0.359  -0.541  -2.837  0.00  0.00    -0.496 OA
ATOM     23  C   UNL     1       0.256   0.713  -2.885  0.00  0.00    +0.276 C 
ENDBRANCH  21  22
BRANCH   1  24
ATOM     24  O   UNL     1       0.430  -0.192   0.225  0.00  0.00    -0.451 OA
BRANCH  24  25
ATOM     25  C   UNL     1       1.440  -1.006   0.737  0.00  0.00    +0.340 C 
ATOM     26  O   UNL     1       1.318  -2.224   0.696  0.00  0.00    -0.248 OA
BRANCH  25  27
ATOM     27  C   UNL     1       2.663  -0.245   1.241  0.00  0.00    +0.172 C 
BRANCH  27  28
ATOM     28  O   UNL     1       3.630  -1.171   1.704  0.00  0.00    -0.377 OA
ATOM     29  H   UNL     1       3.208  -1.813   2.248  0.00  0.00    +0.211 HD
ENDBRANCH  27  28
BRANCH  27  30
ATOM     30  C   UNL     1       2.459   0.734   2.395  0.00  0.00    +0.166 C 
BRANCH  30  31
ATOM     31  C   UNL     1       1.751  -0.026   3.492  0.00  0.00    +0.310 C 
ATOM     32  O   UNL     1       0.749  -0.668   3.328  0.00  0.00    -0.251 OA
BRANCH  31  33
ATOM     33  O   UNL     1       2.502  -0.005   4.629  0.00  0.00    -0.468 OA
ATOM     34  C   UNL     1       1.959  -0.752   5.702  0.00  0.00    +0.280 C 
ENDBRANCH  31  33
ENDBRANCH  30  31
ENDBRANCH  27  30
BRANCH  27  35
ATOM     35  C   UNL     1       3.310   0.512   0.013  0.00  0.00    +0.047 C 
BRANCH  35  36
ATOM     36  C   UNL     1       3.777  -0.461  -1.054  0.00  0.00    +0.006 C 
BRANCH  36  37
ATOM     37  C   UNL     1       4.373   0.139  -2.299  0.00  0.00    +0.034 C 
BRANCH  37  38
ATOM     38  C   UNL     1       5.710   0.846  -2.148  0.00  0.00    +0.061 C 
ATOM     39  C   UNL     1       5.580   2.173  -1.413  0.00  0.00    +0.041 C 
ATOM     40  C   UNL     1       6.256   1.183  -3.571  0.00  0.00    +0.041 C 
BRANCH  38  41
ATOM     41  O   UNL     1       6.633   0.024  -1.485  0.00  0.00    -0.389 OA
ATOM     42  H   UNL     1       6.524  -0.874  -1.715  0.00  0.00    +0.210 HD
ENDBRANCH  38  41
ENDBRANCH  37  38
ENDBRANCH  36  37
ENDBRANCH  35  36
ENDBRANCH  27  35
ENDBRANCH  25  27
ENDBRANCH  24  25
ENDBRANCH   1  24
TORSDOF 13
