REMARK  Name = DB04865Prodrug_2.pdb
REMARK  3 active torsions:
REMARK  status: ('A' for Active; 'I' for Inactive)
REMARK    1  A    between atoms: _1  and  _23
REMARK    2  A    between atoms: _2  and  _3
REMARK    3  A    between atoms: _3  and  _4
REMARK                            x       y       z     vdW  Elec       q    Type
REMARK                         _______ _______ _______ _____ _____    ______ ____
ROOT
ATOM      1  C   UNL     1       1.126   1.605   0.540  0.00  0.00    +0.193 C 
ATOM      2  C   UNL     1       0.288   0.328   0.818  0.00  0.00    +0.111 C 
ATOM      3  C   UNL     1      -1.117   0.415   0.296  0.00  0.00    -0.028 A 
ATOM      4  C   UNL     1      -1.737   1.665   0.493  0.00  0.00    +0.054 A 
ATOM      5  C   UNL     1      -3.033   1.850   0.048  0.00  0.00    +0.167 A 
ATOM      6  O   UNL     1      -3.769   3.000   0.118  0.00  0.00    -0.453 OA
ATOM      7  C   UNL     1      -5.093   2.562  -0.279  0.00  0.00    +0.466 C 
ATOM      8  O   UNL     1      -4.988   1.273  -0.924  0.00  0.00    -0.453 OA
ATOM      9  C   UNL     1      -3.739   0.867  -0.548  0.00  0.00    +0.167 A 
ATOM     10  C   UNL     1      -3.175  -0.378  -0.730  0.00  0.00    +0.053 A 
ATOM     11  C   UNL     1      -1.862  -0.612  -0.295  0.00  0.00    -0.035 A 
ATOM     12  C   UNL     1      -1.375  -2.000  -0.560  0.00  0.00    +0.086 C 
ATOM     13  C   UNL     1      -0.159  -1.933  -1.442  0.00  0.00    +0.137 C 
ATOM     14  N   UNL     1       1.114  -1.561  -0.793  0.00  0.00    +0.243 N 
ATOM     15  H   UNL     1       1.615  -0.982  -1.494  0.00  0.00    +0.204 HD
ATOM     16  C   UNL     1       1.974  -2.765  -0.562  0.00  0.00    +0.132 C 
ATOM     17  C   UNL     1       1.702  -3.176   0.873  0.00  0.00    +0.057 C 
ATOM     18  C   UNL     1       1.187  -1.938   1.571  0.00  0.00    +0.068 C 
ATOM     19  C   UNL     1       1.200  -0.852   0.501  0.00  0.00    +0.022 C 
ATOM     20  C   UNL     1       2.562  -0.218   0.566  0.00  0.00    +0.074 C 
ATOM     21  C   UNL     1       2.509   1.106   0.581  0.00  0.00    +0.128 C 
ENDROOT
BRANCH   1  22
ATOM     22  O   UNL     1       0.839   2.199  -0.706  0.00  0.00    -0.383 OA
ATOM     23  H   UNL     1       1.007   1.579  -1.433  0.00  0.00    +0.210 HD
ENDBRANCH   1  22
BRANCH  21  24
ATOM     24  O   UNL     1       3.642   1.877   0.670  0.00  0.00    -0.497 OA
ATOM     25  C   UNL     1       3.586   3.162   0.045  0.00  0.00    +0.276 C 
ENDBRANCH  21  24
TORSDOF 2
