REMARK  Name = DB07107_1.pdb
REMARK  8 active torsions:
REMARK  status: ('A' for Active; 'I' for Inactive)
REMARK    1  A    between atoms: _1  and  _2
REMARK    2  A    between atoms: _1  and  _18
REMARK    3  A    between atoms: _1  and  _28
REMARK    4  A    between atoms: _2  and  _3
REMARK    5  A    between atoms: _3  and  _4
REMARK    6  A    between atoms: _8  and  _9
REMARK    7  A    between atoms: _10  and  _11
REMARK    8  A    between atoms: _18  and  _19
REMARK                            x       y       z     vdW  Elec       q    Type
REMARK                         _______ _______ _______ _____ _____    ______ ____
ROOT
ATOM      1  C   UNL     1      -2.329   0.875  -0.734  0.00  0.00    +0.103 C 
ENDROOT
BRANCH   1   2
ATOM      2  N   UNL     1      -2.330  -0.018  -2.007  0.00  0.00    +0.223 N 
ATOM      3  H   UNL     1      -3.271  -0.119  -2.322  0.00  0.00    +0.200 HD
ATOM      4  H   UNL     1      -1.750   0.397  -2.754  0.00  0.00    +0.200 HD
ATOM      5  H   UNL     1      -1.948  -0.921  -1.795  0.00  0.00    +0.200 HD
ENDBRANCH   1   2
BRANCH   1   6
ATOM      6  C   UNL     1      -2.778  -0.007   0.437  0.00  0.00    +0.095 C 
BRANCH   6   7
ATOM      7  C   UNL     1      -4.166  -0.478   0.188  0.00  0.00    -0.017 A 
ATOM      8  C   UNL     1      -5.321   0.341   0.255  0.00  0.00    +0.003 A 
ATOM      9  C   UNL     1      -5.475   1.724   0.567  0.00  0.00    +0.010 A 
ATOM     10  C   UNL     1      -6.738   2.296   0.553  0.00  0.00    +0.001 A 
ATOM     11  C   UNL     1      -7.851   1.501   0.231  0.00  0.00    +0.002 A 
ATOM     12  C   UNL     1      -7.702   0.142  -0.085  0.00  0.00    +0.026 A 
ATOM     13  C   UNL     1      -6.418  -0.398  -0.070  0.00  0.00    +0.047 A 
ATOM     14  N   UNL     1      -5.999  -1.713  -0.336  0.00  0.00    -0.360 N 
ATOM     15  H   UNL     1      -6.581  -2.475  -0.568  0.00  0.00    +0.165 HD
ATOM     16  C   UNL     1      -4.615  -1.732  -0.184  0.00  0.00    +0.087 A 
ENDBRANCH   6   7
ENDBRANCH   1   6
BRANCH   1  17
ATOM     17  C   UNL     1      -0.823   1.250  -0.523  0.00  0.00    +0.283 C 
BRANCH  17  18
ATOM     18  O   UNL     1      -0.215  -0.112  -0.280  0.00  0.00    -0.485 OA
BRANCH  18  19
ATOM     19  C   UNL     1       0.957  -0.790  -0.264  0.00  0.00    +0.139 A 
ATOM     20  C   UNL     1       2.225  -0.325  -0.174  0.00  0.00    +0.056 A 
ATOM     21  C   UNL     1       3.291  -1.334  -0.017  0.00  0.00    -0.003 A 
ATOM     22  C   UNL     1       2.922  -2.735  -0.043  0.00  0.00    +0.118 A 
ATOM     23  N   UNL     1       1.672  -3.108  -0.202  0.00  0.00    -0.259 NA
ATOM     24  C   UNL     1       0.732  -2.108  -0.318  0.00  0.00    +0.156 A 
BRANCH  21  25
ATOM     25  C   UNL     1       4.716  -1.067   0.187  0.00  0.00    +0.010 C 
ATOM     26  C   UNL     1       5.238   0.133   0.282  0.00  0.00    +0.008 C 
BRANCH  26  27
ATOM     27  C   UNL     1       6.693   0.418   0.451  0.00  0.00    -0.022 A 
ATOM     28  C   UNL     1       7.084   1.750   0.508  0.00  0.00    +0.027 A 
ATOM     29  C   UNL     1       8.432   2.011   0.661  0.00  0.00    +0.111 A 
ATOM     30  N   UNL     1       9.386   1.073   0.757  0.00  0.00    -0.263 NA
ATOM     31  C   UNL     1       8.961  -0.206   0.696  0.00  0.00    +0.111 A 
ATOM     32  C   UNL     1       7.660  -0.592   0.546  0.00  0.00    +0.027 A 
ENDBRANCH  26  27
ENDBRANCH  21  25
ENDBRANCH  18  19
ENDBRANCH  17  18
ENDBRANCH   1  17
TORSDOF 8
