REMARK  Name = DB07107_4.pdb
REMARK  8 active torsions:
REMARK  status: ('A' for Active; 'I' for Inactive)
REMARK    1  A    between atoms: _1  and  _2
REMARK    2  A    between atoms: _1  and  _18
REMARK    3  A    between atoms: _1  and  _28
REMARK    4  A    between atoms: _2  and  _3
REMARK    5  A    between atoms: _3  and  _4
REMARK    6  A    between atoms: _8  and  _9
REMARK    7  A    between atoms: _10  and  _11
REMARK    8  A    between atoms: _18  and  _19
REMARK                            x       y       z     vdW  Elec       q    Type
REMARK                         _______ _______ _______ _____ _____    ______ ____
ROOT
ATOM      1  C   UNL     1      -1.855  -0.037  -0.967  0.00  0.00    +0.103 C 
ENDROOT
BRANCH   1   2
ATOM      2  N   UNL     1      -2.249  -0.508  -2.342  0.00  0.00    +0.223 N 
ATOM      3  H   UNL     1      -3.268  -0.609  -2.430  0.00  0.00    +0.200 HD
ATOM      4  H   UNL     1      -1.820  -1.426  -2.538  0.00  0.00    +0.200 HD
ATOM      5  H   UNL     1      -1.942   0.135  -3.092  0.00  0.00    +0.200 HD
ENDBRANCH   1   2
BRANCH   1   6
ATOM      6  C   UNL     1      -2.691  -0.750   0.116  0.00  0.00    +0.095 C 
BRANCH   6   7
ATOM      7  C   UNL     1      -4.136  -0.461   0.004  0.00  0.00    -0.017 A 
ATOM      8  C   UNL     1      -4.777   0.768   0.357  0.00  0.00    +0.003 A 
ATOM      9  C   UNL     1      -4.311   2.009   0.861  0.00  0.00    +0.010 A 
ATOM     10  C   UNL     1      -5.228   3.014   1.113  0.00  0.00    +0.001 A 
ATOM     11  C   UNL     1      -6.587   2.813   0.892  0.00  0.00    +0.002 A 
ATOM     12  C   UNL     1      -7.072   1.603   0.409  0.00  0.00    +0.026 A 
ATOM     13  C   UNL     1      -6.137   0.585   0.140  0.00  0.00    +0.047 A 
ATOM     14  N   UNL     1      -6.324  -0.698  -0.317  0.00  0.00    -0.360 N 
ATOM     15  H   UNL     1      -7.237  -1.102  -0.517  0.00  0.00    +0.165 HD
ATOM     16  C   UNL     1      -5.123  -1.334  -0.425  0.00  0.00    +0.087 A 
ENDBRANCH   6   7
ENDBRANCH   1   6
BRANCH   1  17
ATOM     17  C   UNL     1      -0.385  -0.361  -0.758  0.00  0.00    +0.283 C 
BRANCH  17  18
ATOM     18  O   UNL     1      -0.256  -1.784  -0.928  0.00  0.00    -0.485 OA
BRANCH  18  19
ATOM     19  C   UNL     1       1.008  -2.257  -0.672  0.00  0.00    +0.139 A 
ATOM     20  C   UNL     1       2.106  -1.456  -0.363  0.00  0.00    +0.056 A 
ATOM     21  C   UNL     1       3.363  -2.002  -0.158  0.00  0.00    -0.003 A 
ATOM     22  C   UNL     1       3.458  -3.409  -0.277  0.00  0.00    +0.118 A 
ATOM     23  N   UNL     1       2.429  -4.228  -0.561  0.00  0.00    -0.259 NA
ATOM     24  C   UNL     1       1.230  -3.625  -0.745  0.00  0.00    +0.156 A 
BRANCH  21  25
ATOM     25  C   UNL     1       4.531  -1.192   0.150  0.00  0.00    +0.010 C 
ATOM     26  C   UNL     1       4.531   0.173   0.282  0.00  0.00    +0.008 C 
BRANCH  26  27
ATOM     27  C   UNL     1       5.714   0.960   0.592  0.00  0.00    -0.022 A 
ATOM     28  C   UNL     1       5.564   2.363   0.698  0.00  0.00    +0.027 A 
ATOM     29  C   UNL     1       6.683   3.113   0.993  0.00  0.00    +0.111 A 
ATOM     30  N   UNL     1       7.916   2.612   1.188  0.00  0.00    -0.263 NA
ATOM     31  C   UNL     1       8.029   1.260   1.080  0.00  0.00    +0.111 A 
ATOM     32  C   UNL     1       6.977   0.415   0.790  0.00  0.00    +0.027 A 
ENDBRANCH  26  27
ENDBRANCH  21  25
ENDBRANCH  18  19
ENDBRANCH  17  18
ENDBRANCH   1  17
TORSDOF 8
