REMARK  Name = DB07107_3.pdb
REMARK  8 active torsions:
REMARK  status: ('A' for Active; 'I' for Inactive)
REMARK    1  A    between atoms: _1  and  _2
REMARK    2  A    between atoms: _1  and  _18
REMARK    3  A    between atoms: _1  and  _28
REMARK    4  A    between atoms: _2  and  _3
REMARK    5  A    between atoms: _3  and  _4
REMARK    6  A    between atoms: _8  and  _9
REMARK    7  A    between atoms: _10  and  _11
REMARK    8  A    between atoms: _18  and  _19
REMARK                            x       y       z     vdW  Elec       q    Type
REMARK                         _______ _______ _______ _____ _____    ______ ____
ROOT
ATOM      1  C   UNL     1      -2.327  -1.464   1.683  0.00  0.00    +0.103 C 
ENDROOT
BRANCH   1   2
ATOM      2  N   UNL     1      -2.656  -0.342   2.603  0.00  0.00    +0.223 N 
ATOM      3  H   UNL     1      -2.483   0.575   2.163  0.00  0.00    +0.200 HD
ATOM      4  H   UNL     1      -2.120  -0.391   3.481  0.00  0.00    +0.200 HD
ATOM      5  H   UNL     1      -3.647  -0.365   2.871  0.00  0.00    +0.200 HD
ENDBRANCH   1   2
BRANCH   1   6
ATOM      6  C   UNL     1      -3.405  -1.650   0.606  0.00  0.00    +0.095 C 
BRANCH   6   7
ATOM      7  C   UNL     1      -3.454  -0.582  -0.431  0.00  0.00    -0.017 A 
ATOM      8  C   UNL     1      -4.153   0.645  -0.376  0.00  0.00    +0.003 A 
ATOM      9  C   UNL     1      -4.994   1.264   0.559  0.00  0.00    +0.010 A 
ATOM     10  C   UNL     1      -5.548   2.522   0.278  0.00  0.00    +0.001 A 
ATOM     11  C   UNL     1      -5.289   3.155  -0.919  0.00  0.00    +0.002 A 
ATOM     12  C   UNL     1      -4.465   2.554  -1.869  0.00  0.00    +0.026 A 
ATOM     13  C   UNL     1      -3.911   1.307  -1.565  0.00  0.00    +0.047 A 
ATOM     14  N   UNL     1      -3.094   0.519  -2.344  0.00  0.00    -0.360 N 
ATOM     15  H   UNL     1      -2.776   0.727  -3.272  0.00  0.00    +0.165 HD
ATOM     16  C   UNL     1      -2.815  -0.625  -1.646  0.00  0.00    +0.087 A 
ENDBRANCH   6   7
ENDBRANCH   1   6
BRANCH   1  17
ATOM     17  C   UNL     1      -0.920  -1.295   1.100  0.00  0.00    +0.283 C 
BRANCH  17  18
ATOM     18  O   UNL     1      -0.643  -2.423   0.265  0.00  0.00    -0.485 OA
BRANCH  18  19
ATOM     19  C   UNL     1       0.547  -2.495  -0.382  0.00  0.00    +0.139 A 
ATOM     20  C   UNL     1       1.586  -1.589  -0.222  0.00  0.00    +0.056 A 
ATOM     21  C   UNL     1       2.784  -1.786  -0.912  0.00  0.00    -0.003 A 
ATOM     22  C   UNL     1       2.875  -2.887  -1.748  0.00  0.00    +0.118 A 
ATOM     23  N   UNL     1       1.873  -3.770  -1.939  0.00  0.00    -0.259 NA
ATOM     24  C   UNL     1       0.733  -3.559  -1.251  0.00  0.00    +0.156 A 
BRANCH  21  25
ATOM     25  C   UNL     1       3.934  -0.890  -0.776  0.00  0.00    +0.010 C 
ATOM     26  C   UNL     1       3.981   0.208  -0.003  0.00  0.00    +0.008 C 
BRANCH  26  27
ATOM     27  C   UNL     1       5.126   1.115   0.139  0.00  0.00    -0.022 A 
ATOM     28  C   UNL     1       4.993   2.217   0.990  0.00  0.00    +0.027 A 
ATOM     29  C   UNL     1       6.057   3.078   1.134  0.00  0.00    +0.111 A 
ATOM     30  N   UNL     1       7.219   2.900   0.488  0.00  0.00    -0.263 NA
ATOM     31  C   UNL     1       7.338   1.836  -0.329  0.00  0.00    +0.111 A 
ATOM     32  C   UNL     1       6.330   0.930  -0.530  0.00  0.00    +0.027 A 
ENDBRANCH  26  27
ENDBRANCH  21  25
ENDBRANCH  18  19
ENDBRANCH  17  18
ENDBRANCH   1  17
TORSDOF 8
