REMARK  Name = DB07107_0.pdb
REMARK  8 active torsions:
REMARK  status: ('A' for Active; 'I' for Inactive)
REMARK    1  A    between atoms: _1  and  _2
REMARK    2  A    between atoms: _1  and  _18
REMARK    3  A    between atoms: _1  and  _28
REMARK    4  A    between atoms: _2  and  _3
REMARK    5  A    between atoms: _3  and  _4
REMARK    6  A    between atoms: _8  and  _9
REMARK    7  A    between atoms: _10  and  _11
REMARK    8  A    between atoms: _18  and  _19
REMARK                            x       y       z     vdW  Elec       q    Type
REMARK                         _______ _______ _______ _____ _____    ______ ____
ROOT
ATOM      1  C   UNL     1      -2.075   0.085  -0.779  0.00  0.00    +0.103 C 
ENDROOT
BRANCH   1   2
ATOM      2  N   UNL     1      -1.538   0.850   0.355  0.00  0.00    +0.223 N 
ATOM      3  H   UNL     1      -0.806   0.302   0.788  0.00  0.00    +0.200 HD
ATOM      4  H   UNL     1      -2.251   1.067   1.075  0.00  0.00    +0.200 HD
ATOM      5  H   UNL     1      -1.098   1.721  -0.015  0.00  0.00    +0.200 HD
ENDBRANCH   1   2
BRANCH   1   6
ATOM      6  C   UNL     1      -3.143   0.835  -1.555  0.00  0.00    +0.095 C 
BRANCH   6   7
ATOM      7  C   UNL     1      -4.323   1.132  -0.724  0.00  0.00    -0.017 A 
ATOM      8  C   UNL     1      -5.306   0.208  -0.387  0.00  0.00    +0.003 A 
ATOM      9  C   UNL     1      -5.494  -1.135  -0.685  0.00  0.00    +0.010 A 
ATOM     10  C   UNL     1      -6.629  -1.776  -0.179  0.00  0.00    +0.001 A 
ATOM     11  C   UNL     1      -7.551  -1.095   0.603  0.00  0.00    +0.002 A 
ATOM     12  C   UNL     1      -7.341   0.270   0.899  0.00  0.00    +0.026 A 
ATOM     13  C   UNL     1      -6.205   0.892   0.391  0.00  0.00    +0.047 A 
ATOM     14  N   UNL     1      -5.790   2.220   0.543  0.00  0.00    -0.360 N 
ATOM     15  H   UNL     1      -6.252   2.956   1.040  0.00  0.00    +0.165 HD
ATOM     16  C   UNL     1      -4.613   2.343  -0.152  0.00  0.00    +0.087 A 
ENDBRANCH   6   7
ENDBRANCH   1   6
BRANCH   1  17
ATOM     17  C   UNL     1      -0.931  -0.090  -1.797  0.00  0.00    +0.283 C 
BRANCH  17  18
ATOM     18  O   UNL     1       0.313  -0.532  -1.097  0.00  0.00    -0.485 OA
BRANCH  18  19
ATOM     19  C   UNL     1       0.994  -1.433  -0.455  0.00  0.00    +0.139 A 
ATOM     20  C   UNL     1       2.278  -0.934  -0.274  0.00  0.00    +0.056 A 
ATOM     21  C   UNL     1       3.275  -1.640   0.408  0.00  0.00    -0.003 A 
ATOM     22  C   UNL     1       2.924  -2.856   0.894  0.00  0.00    +0.118 A 
ATOM     23  N   UNL     1       1.673  -3.391   0.736  0.00  0.00    -0.259 NA
ATOM     24  C   UNL     1       0.713  -2.653   0.036  0.00  0.00    +0.156 A 
BRANCH  21  25
ATOM     25  C   UNL     1       4.618  -1.074   0.578  0.00  0.00    +0.010 C 
ATOM     26  C   UNL     1       5.032   0.114   0.129  0.00  0.00    +0.008 C 
BRANCH  26  27
ATOM     27  C   UNL     1       6.388   0.630   0.325  0.00  0.00    -0.022 A 
ATOM     28  C   UNL     1       6.707   1.898  -0.198  0.00  0.00    +0.027 A 
ATOM     29  C   UNL     1       7.958   2.404  -0.031  0.00  0.00    +0.111 A 
ATOM     30  N   UNL     1       8.902   1.716   0.627  0.00  0.00    -0.263 NA
ATOM     31  C   UNL     1       8.599   0.495   1.130  0.00  0.00    +0.111 A 
ATOM     32  C   UNL     1       7.385  -0.065   1.002  0.00  0.00    +0.027 A 
ENDBRANCH  26  27
ENDBRANCH  21  25
ENDBRANCH  18  19
ENDBRANCH  17  18
ENDBRANCH   1  17
TORSDOF 8
