REMARK  Name = DB07107_2.pdb
REMARK  8 active torsions:
REMARK  status: ('A' for Active; 'I' for Inactive)
REMARK    1  A    between atoms: _1  and  _2
REMARK    2  A    between atoms: _1  and  _18
REMARK    3  A    between atoms: _1  and  _28
REMARK    4  A    between atoms: _2  and  _3
REMARK    5  A    between atoms: _3  and  _4
REMARK    6  A    between atoms: _8  and  _9
REMARK    7  A    between atoms: _10  and  _11
REMARK    8  A    between atoms: _18  and  _19
REMARK                            x       y       z     vdW  Elec       q    Type
REMARK                         _______ _______ _______ _____ _____    ______ ____
ROOT
ATOM      1  C   UNL     1      -2.596  -1.973   1.112  0.00  0.00    +0.103 C 
ENDROOT
BRANCH   1   2
ATOM      2  N   UNL     1      -3.153  -1.199   2.269  0.00  0.00    +0.223 N 
ATOM      3  H   UNL     1      -4.134  -1.449   2.441  0.00  0.00    +0.200 HD
ATOM      4  H   UNL     1      -2.635  -1.416   3.125  0.00  0.00    +0.200 HD
ATOM      5  H   UNL     1      -3.058  -0.185   2.117  0.00  0.00    +0.200 HD
ENDBRANCH   1   2
BRANCH   1   6
ATOM      6  C   UNL     1      -3.472  -1.847  -0.154  0.00  0.00    +0.095 C 
BRANCH   6   7
ATOM      7  C   UNL     1      -3.557  -0.462  -0.694  0.00  0.00    -0.017 A 
ATOM      8  C   UNL     1      -4.491   0.537  -0.325  0.00  0.00    +0.003 A 
ATOM      9  C   UNL     1      -5.561   0.582   0.572  0.00  0.00    +0.010 A 
ATOM     10  C   UNL     1      -6.300   1.754   0.716  0.00  0.00    +0.001 A 
ATOM     11  C   UNL     1      -6.003   2.873  -0.031  0.00  0.00    +0.002 A 
ATOM     12  C   UNL     1      -4.958   2.846  -0.943  0.00  0.00    +0.026 A 
ATOM     13  C   UNL     1      -4.214   1.666  -1.069  0.00  0.00    +0.047 A 
ATOM     14  N   UNL     1      -3.162   1.379  -1.904  0.00  0.00    -0.360 N 
ATOM     15  H   UNL     1      -2.760   2.010  -2.577  0.00  0.00    +0.165 HD
ATOM     16  C   UNL     1      -2.761   0.087  -1.677  0.00  0.00    +0.087 A 
ENDBRANCH   6   7
ENDBRANCH   1   6
BRANCH   1  17
ATOM     17  C   UNL     1      -1.151  -1.535   0.868  0.00  0.00    +0.283 C 
BRANCH  17  18
ATOM     18  O   UNL     1      -0.695  -2.288  -0.254  0.00  0.00    -0.485 OA
BRANCH  18  19
ATOM     19  C   UNL     1       0.549  -2.079  -0.739  0.00  0.00    +0.139 A 
ATOM     20  C   UNL     1       1.471  -1.192  -0.215  0.00  0.00    +0.056 A 
ATOM     21  C   UNL     1       2.750  -1.102  -0.779  0.00  0.00    -0.003 A 
ATOM     22  C   UNL     1       3.025  -1.909  -1.864  0.00  0.00    +0.118 A 
ATOM     23  N   UNL     1       2.127  -2.761  -2.395  0.00  0.00    -0.259 NA
ATOM     24  C   UNL     1       0.906  -2.838  -1.834  0.00  0.00    +0.156 A 
BRANCH  21  25
ATOM     25  C   UNL     1       3.698  -0.173  -0.188  0.00  0.00    +0.010 C 
ATOM     26  C   UNL     1       4.975  -0.007  -0.586  0.00  0.00    +0.008 C 
BRANCH  26  27
ATOM     27  C   UNL     1       5.931   0.931   0.009  0.00  0.00    -0.022 A 
ATOM     28  C   UNL     1       7.229   0.974  -0.500  0.00  0.00    +0.027 A 
ATOM     29  C   UNL     1       8.145   1.853   0.048  0.00  0.00    +0.111 A 
ATOM     30  N   UNL     1       7.843   2.685   1.065  0.00  0.00    -0.263 NA
ATOM     31  C   UNL     1       6.586   2.637   1.551  0.00  0.00    +0.111 A 
ATOM     32  C   UNL     1       5.620   1.786   1.053  0.00  0.00    +0.027 A 
ENDBRANCH  26  27
ENDBRANCH  21  25
ENDBRANCH  18  19
ENDBRANCH  17  18
ENDBRANCH   1  17
TORSDOF 8
