REMARK  Name = DB08500_1.pdb
REMARK  6 active torsions:
REMARK  status: ('A' for Active; 'I' for Inactive)
REMARK    1  A    between atoms: _1  and  _2
REMARK    2  A    between atoms: _15  and  _16
REMARK    3  A    between atoms: _16  and  _17
REMARK    4  A    between atoms: _18  and  _19
REMARK    5  A    between atoms: _20  and  _21
REMARK    6  A    between atoms: _22  and  _23
REMARK                            x       y       z     vdW  Elec       q    Type
REMARK                         _______ _______ _______ _____ _____    ______ ____
ROOT
ATOM      1  C   UNL     1       0.520  -0.719   0.448  0.00  0.00    +0.116 C 
ATOM      2  N   UNL     1      -0.043  -0.071   1.651  0.00  0.00    -0.190 NA
ATOM      3  H   UNL     1      -0.745  -0.681   2.025  0.00  0.00    +0.155 HD
ATOM      4  O   UNL     1      -0.990   0.959   1.027  0.00  0.00    -0.261 OA
ATOM      5  C   UNL     1      -1.488   0.343  -0.165  0.00  0.00    +0.220 C 
ATOM      6  C   UNL     1      -2.283   1.397  -1.032  0.00  0.00    +0.206 C 
ATOM      7  C   UNL     1      -3.668   0.858  -1.493  0.00  0.00    +0.179 C 
ATOM      8  C   UNL     1      -4.447   0.079  -0.383  0.00  0.00    +0.177 C 
ATOM      9  C   UNL     1      -3.503  -0.344   0.773  0.00  0.00    +0.178 C 
ATOM     10  O   UNL     1      -2.295  -0.808   0.169  0.00  0.00    -0.337 OA
ATOM     11  C   UNL     1      -0.248  -0.143  -0.777  0.00  0.00    +0.095 C 
ENDROOT
BRANCH   1  12
ATOM     12  C   UNL     1       2.019  -0.524   0.424  0.00  0.00    -0.028 A 
ATOM     13  C   UNL     1       2.703  -0.617   1.625  0.00  0.00    +0.006 A 
ATOM     14  C   UNL     1       4.075  -0.386   1.702  0.00  0.00    +0.009 A 
ATOM     15  C   UNL     1       4.759  -0.075   0.514  0.00  0.00    -0.018 A 
ATOM     16  C   UNL     1       6.138   0.148   0.564  0.00  0.00    +0.008 A 
ATOM     17  C   UNL     1       6.839   0.449  -0.623  0.00  0.00    +0.001 A 
ATOM     18  C   UNL     1       6.152   0.537  -1.836  0.00  0.00    +0.001 A 
ATOM     19  C   UNL     1       4.775   0.326  -1.902  0.00  0.00    +0.008 A 
ATOM     20  C   UNL     1       4.084   0.007  -0.711  0.00  0.00    -0.018 A 
ATOM     21  C   UNL     1       2.709  -0.227  -0.767  0.00  0.00    +0.013 A 
ENDBRANCH   1  12
BRANCH   7  22
ATOM     22  O   UNL     1      -3.495   0.070  -2.689  0.00  0.00    -0.386 OA
ATOM     23  H   UNL     1      -3.689  -0.852  -2.489  0.00  0.00    +0.210 HD
ENDBRANCH   7  22
BRANCH   6  24
ATOM     24  O   UNL     1      -2.491   2.598  -0.232  0.00  0.00    -0.384 OA
ATOM     25  H   UNL     1      -3.200   3.093  -0.601  0.00  0.00    +0.210 HD
ENDBRANCH   6  24
BRANCH   8  26
ATOM     26  O   UNL     1      -5.520   0.961   0.034  0.00  0.00    -0.386 OA
ATOM     27  H   UNL     1      -5.120   1.650   0.562  0.00  0.00    +0.210 HD
ENDBRANCH   8  26
BRANCH   9  28
ATOM     28  C   UNL     1      -4.056  -1.454   1.674  0.00  0.00    +0.190 C 
BRANCH  28  29
ATOM     29  O   UNL     1      -5.274  -1.035   2.293  0.00  0.00    -0.392 OA
ATOM     30  H   UNL     1      -5.219  -1.270   3.216  0.00  0.00    +0.210 HD
ENDBRANCH  28  29
ENDBRANCH   9  28
TORSDOF 6
