REMARK  Name = DB08500_0.pdb
REMARK  6 active torsions:
REMARK  status: ('A' for Active; 'I' for Inactive)
REMARK    1  A    between atoms: _1  and  _2
REMARK    2  A    between atoms: _15  and  _16
REMARK    3  A    between atoms: _16  and  _17
REMARK    4  A    between atoms: _18  and  _19
REMARK    5  A    between atoms: _20  and  _21
REMARK    6  A    between atoms: _22  and  _23
REMARK                            x       y       z     vdW  Elec       q    Type
REMARK                         _______ _______ _______ _____ _____    ______ ____
ROOT
ATOM      1  C   UNL     1       0.579   0.702   0.543  0.00  0.00    +0.116 C 
ATOM      2  N   UNL     1       0.207   1.616  -0.470  0.00  0.00    -0.190 NA
ATOM      3  H   UNL     1       0.231   1.158  -1.402  0.00  0.00    +0.155 HD
ATOM      4  O   UNL     1      -1.228   1.759  -0.255  0.00  0.00    -0.261 OA
ATOM      5  C   UNL     1      -1.724   0.483   0.124  0.00  0.00    +0.220 C 
ATOM      6  C   UNL     1      -2.494  -0.018  -1.111  0.00  0.00    +0.206 C 
ATOM      7  C   UNL     1      -3.830   0.664  -1.155  0.00  0.00    +0.179 C 
ATOM      8  C   UNL     1      -4.640   0.158   0.051  0.00  0.00    +0.177 C 
ATOM      9  C   UNL     1      -3.840   0.193   1.391  0.00  0.00    +0.178 C 
ATOM     10  O   UNL     1      -2.505   0.663   1.299  0.00  0.00    -0.337 OA
ATOM     11  C   UNL     1      -0.525  -0.332   0.474  0.00  0.00    +0.095 C 
ENDROOT
BRANCH   1  12
ATOM     12  C   UNL     1       1.976   0.151   0.393  0.00  0.00    -0.028 A 
ATOM     13  C   UNL     1       2.334  -1.165   0.620  0.00  0.00    +0.006 A 
ATOM     14  C   UNL     1       3.646  -1.598   0.422  0.00  0.00    +0.009 A 
ATOM     15  C   UNL     1       4.624  -0.659   0.006  0.00  0.00    -0.018 A 
ATOM     16  C   UNL     1       5.954  -1.056  -0.210  0.00  0.00    +0.008 A 
ATOM     17  C   UNL     1       6.895  -0.105  -0.617  0.00  0.00    +0.001 A 
ATOM     18  C   UNL     1       6.538   1.220  -0.824  0.00  0.00    +0.001 A 
ATOM     19  C   UNL     1       5.218   1.621  -0.616  0.00  0.00    +0.008 A 
ATOM     20  C   UNL     1       4.272   0.667  -0.193  0.00  0.00    -0.018 A 
ATOM     21  C   UNL     1       2.965   1.083   0.013  0.00  0.00    +0.013 A 
ENDBRANCH   1  12
BRANCH   7  22
ATOM     22  O   UNL     1      -4.519   0.378  -2.369  0.00  0.00    -0.386 OA
ATOM     23  H   UNL     1      -3.986  -0.285  -2.882  0.00  0.00    +0.210 HD
ENDBRANCH   7  22
BRANCH   6  24
ATOM     24  O   UNL     1      -1.797   0.188  -2.380  0.00  0.00    -0.384 OA
ATOM     25  H   UNL     1      -1.980   1.112  -2.646  0.00  0.00    +0.210 HD
ENDBRANCH   6  24
BRANCH   8  26
ATOM     26  O   UNL     1      -5.846   0.938   0.135  0.00  0.00    -0.386 OA
ATOM     27  H   UNL     1      -6.131   0.995   1.098  0.00  0.00    +0.210 HD
ENDBRANCH   8  26
BRANCH   9  28
ATOM     28  C   UNL     1      -3.879  -1.163   2.103  0.00  0.00    +0.190 C 
BRANCH  28  29
ATOM     29  O   UNL     1      -3.090  -2.134   1.436  0.00  0.00    -0.392 OA
ATOM     30  H   UNL     1      -3.619  -2.503   0.703  0.00  0.00    +0.210 HD
ENDBRANCH  28  29
ENDBRANCH   9  28
TORSDOF 6
