REMARK  Name = DB08569_3.pdb
REMARK  8 active torsions:
REMARK  status: ('A' for Active; 'I' for Inactive)
REMARK    1  A    between atoms: _1  and  _2
REMARK    2  A    between atoms: _1  and  _20
REMARK    3  A    between atoms: _1  and  _28
REMARK    4  A    between atoms: _2  and  _3
REMARK    5  A    between atoms: _3  and  _4
REMARK    6  A    between atoms: _8  and  _9
REMARK    7  A    between atoms: _17  and  _18
REMARK    8  A    between atoms: _20  and  _21
REMARK                            x       y       z     vdW  Elec       q    Type
REMARK                         _______ _______ _______ _____ _____    ______ ____
ROOT
ATOM      1  C   UNL     1      -0.038  -0.665   1.036  0.00  0.00    +0.139 A 
ATOM      2  C   UNL     1       1.278  -0.886   0.646  0.00  0.00    +0.057 A 
ATOM      3  C   UNL     1       2.319  -0.034   0.977  0.00  0.00    +0.004 A 
ATOM      4  C   UNL     1       1.942   1.106   1.690  0.00  0.00    +0.119 A 
ATOM      5  N   UNL     1       0.671   1.385   2.089  0.00  0.00    -0.259 NA
ATOM      6  C   UNL     1      -0.299   0.480   1.787  0.00  0.00    +0.156 A 
ENDROOT
BRANCH   3   7
ATOM      7  C   UNL     1       3.705  -0.344   0.589  0.00  0.00    -0.016 A 
ATOM      8  C   UNL     1       4.158  -1.667   0.514  0.00  0.00    +0.010 A 
ATOM      9  C   UNL     1       5.459  -2.011   0.126  0.00  0.00    +0.028 A 
ATOM     10  C   UNL     1       6.325  -0.965  -0.173  0.00  0.00    +0.066 A 
ATOM     11  N   UNL     1       7.641  -0.943  -0.558  0.00  0.00    -0.277 N 
ATOM     12  H   UNL     1       8.266  -1.721  -0.712  0.00  0.00    +0.189 HD
ATOM     13  N   UNL     1       8.112   0.289  -0.754  0.00  0.00    -0.178 NA
ATOM     14  C   UNL     1       7.082   1.093  -0.488  0.00  0.00    +0.067 A 
ATOM     15  C   UNL     1       7.205   2.570  -0.604  0.00  0.00    +0.068 C 
ATOM     16  C   UNL     1       5.930   0.355  -0.114  0.00  0.00    +0.023 A 
ATOM     17  C   UNL     1       4.614   0.675   0.262  0.00  0.00    +0.020 A 
ENDBRANCH   3   7
BRANCH   1  18
ATOM     18  O   UNL     1      -0.875  -1.602   0.535  0.00  0.00    -0.485 OA
BRANCH  18  19
ATOM     19  C   UNL     1      -2.225  -1.725   0.936  0.00  0.00    +0.283 C 
BRANCH  19  20
ATOM     20  C   UNL     1      -3.133  -0.699   0.239  0.00  0.00    +0.103 C 
BRANCH  20  21
ATOM     21  N   UNL     1      -2.758  -0.638  -1.226  0.00  0.00    +0.223 N 
ATOM     22  H   UNL     1      -2.937  -1.520  -1.720  0.00  0.00    +0.200 HD
ATOM     23  H   UNL     1      -1.750  -0.438  -1.338  0.00  0.00    +0.200 HD
ATOM     24  H   UNL     1      -3.252   0.128  -1.708  0.00  0.00    +0.200 HD
ENDBRANCH  20  21
BRANCH  20  25
ATOM     25  C   UNL     1      -4.598  -1.114   0.399  0.00  0.00    +0.092 C 
BRANCH  25  26
ATOM     26  C   UNL     1      -5.568  -0.134  -0.200  0.00  0.00    -0.042 A 
ATOM     27  C   UNL     1      -6.084   0.911   0.575  0.00  0.00    +0.005 A 
ATOM     28  C   UNL     1      -7.001   1.800   0.020  0.00  0.00    +0.015 A 
ATOM     29  C   UNL     1      -7.393   1.664  -1.311  0.00  0.00    +0.018 A 
ATOM     30 BR   UNL     1      -8.641   2.861  -2.055  0.00  0.00    -0.050 Br
ATOM     31  C   UNL     1      -6.875   0.636  -2.089  0.00  0.00    +0.015 A 
ATOM     32  C   UNL     1      -5.971  -0.265  -1.536  0.00  0.00    +0.005 A 
ENDBRANCH  25  26
ENDBRANCH  20  25
ENDBRANCH  19  20
ENDBRANCH  18  19
ENDBRANCH   1  18
TORSDOF 7
