REMARK  Name = DB08503_0.pdb
REMARK  7 active torsions:
REMARK  status: ('A' for Active; 'I' for Inactive)
REMARK    1  A    between atoms: _1  and  _2
REMARK    2  A    between atoms: _5  and  _8
REMARK    3  A    between atoms: _12  and  _13
REMARK    4  A    between atoms: _13  and  _14
REMARK    5  A    between atoms: _15  and  _16
REMARK    6  A    between atoms: _17  and  _18
REMARK    7  A    between atoms: _19  and  _20
REMARK                            x       y       z     vdW  Elec       q    Type
REMARK                         _______ _______ _______ _____ _____    ______ ____
ROOT
ATOM      1  C   UNL     1       0.960   0.475  -0.376  0.00  0.00    +0.116 C 
ATOM      2  N   UNL     1       0.341  -0.214  -1.502  0.00  0.00    -0.190 NA
ATOM      3  H   UNL     1       0.922  -0.878  -2.120  0.00  0.00    +0.155 HD
ATOM      4  O   UNL     1      -0.773  -1.059  -0.857  0.00  0.00    -0.261 OA
ATOM      5  C   UNL     1      -1.110  -0.220   0.320  0.00  0.00    +0.220 C 
ATOM      6  C   UNL     1      -2.037  -0.974   1.222  0.00  0.00    +0.206 C 
ATOM      7  C   UNL     1      -3.258  -1.373   0.428  0.00  0.00    +0.179 C 
ATOM      8  C   UNL     1      -3.943  -0.136  -0.144  0.00  0.00    +0.177 C 
ATOM      9  C   UNL     1      -2.990   0.860  -0.777  0.00  0.00    +0.178 C 
ATOM     10  O   UNL     1      -1.756   1.031  -0.044  0.00  0.00    -0.337 OA
ATOM     11  C   UNL     1       0.204   0.141   0.884  0.00  0.00    +0.095 C 
ENDROOT
BRANCH   1  12
ATOM     12  C   UNL     1       2.438   0.233  -0.280  0.00  0.00    -0.028 A 
ATOM     13  C   UNL     1       3.301   1.316  -0.168  0.00  0.00    +0.005 A 
ATOM     14  C   UNL     1       4.676   1.110  -0.046  0.00  0.00    +0.003 A 
ATOM     15  C   UNL     1       5.191  -0.186  -0.019  0.00  0.00    -0.050 A 
ATOM     16  C   UNL     1       6.671  -0.360   0.108  0.00  0.00    +0.044 C 
ATOM     17  C   UNL     1       4.330  -1.266  -0.144  0.00  0.00    +0.003 A 
ATOM     18  C   UNL     1       2.961  -1.070  -0.262  0.00  0.00    +0.005 A 
ENDBRANCH   1  12
BRANCH   7  19
ATOM     19  O   UNL     1      -4.222  -2.043   1.290  0.00  0.00    -0.386 OA
ATOM     20  H   UNL     1      -5.050  -2.046   0.777  0.00  0.00    +0.210 HD
ENDBRANCH   7  19
BRANCH   6  21
ATOM     21  O   UNL     1      -1.364  -2.142   1.768  0.00  0.00    -0.384 OA
ATOM     22  H   UNL     1      -1.697  -2.200   2.677  0.00  0.00    +0.210 HD
ENDBRANCH   6  21
BRANCH   8  23
ATOM     23  O   UNL     1      -4.886  -0.576  -1.166  0.00  0.00    -0.386 OA
ATOM     24  H   UNL     1      -4.395  -0.666  -2.003  0.00  0.00    +0.210 HD
ENDBRANCH   8  23
BRANCH   9  25
ATOM     25  C   UNL     1      -3.617   2.235  -0.794  0.00  0.00    +0.190 C 
BRANCH  25  26
ATOM     26  O   UNL     1      -3.903   2.652   0.567  0.00  0.00    -0.392 OA
ATOM     27  H   UNL     1      -4.822   2.969   0.584  0.00  0.00    +0.210 HD
ENDBRANCH  25  26
ENDBRANCH   9  25
TORSDOF 6
