REMARK  Name = DB08500_2.pdb
REMARK  6 active torsions:
REMARK  status: ('A' for Active; 'I' for Inactive)
REMARK    1  A    between atoms: _1  and  _2
REMARK    2  A    between atoms: _15  and  _16
REMARK    3  A    between atoms: _16  and  _17
REMARK    4  A    between atoms: _18  and  _19
REMARK    5  A    between atoms: _20  and  _21
REMARK    6  A    between atoms: _22  and  _23
REMARK                            x       y       z     vdW  Elec       q    Type
REMARK                         _______ _______ _______ _____ _____    ______ ____
ROOT
ATOM      1  C   UNL     1       0.564  -0.507   1.038  0.00  0.00    +0.116 C 
ATOM      2  N   UNL     1      -0.041   0.444   1.956  0.00  0.00    -0.190 NA
ATOM      3  H   UNL     1       0.524   1.293   2.011  0.00  0.00    +0.155 HD
ATOM      4  O   UNL     1      -1.273   0.916   1.423  0.00  0.00    -0.261 OA
ATOM      5  C   UNL     1      -1.598   0.180   0.272  0.00  0.00    +0.220 C 
ATOM      6  C   UNL     1      -2.146   1.085  -0.826  0.00  0.00    +0.206 C 
ATOM      7  C   UNL     1      -3.568   0.652  -1.183  0.00  0.00    +0.179 C 
ATOM      8  C   UNL     1      -4.364   0.470   0.108  0.00  0.00    +0.177 C 
ATOM      9  C   UNL     1      -3.724  -0.624   0.972  0.00  0.00    +0.178 C 
ATOM     10  O   UNL     1      -2.409  -0.948   0.557  0.00  0.00    -0.337 OA
ATOM     11  C   UNL     1      -0.295  -0.413  -0.198  0.00  0.00    +0.095 C 
ENDROOT
BRANCH   1  12
ATOM     12  C   UNL     1       2.027  -0.215   0.780  0.00  0.00    -0.028 A 
ATOM     13  C   UNL     1       2.853   0.123   1.853  0.00  0.00    +0.006 A 
ATOM     14  C   UNL     1       4.203   0.349   1.648  0.00  0.00    +0.009 A 
ATOM     15  C   UNL     1       4.771   0.245   0.382  0.00  0.00    -0.018 A 
ATOM     16  C   UNL     1       6.129   0.460   0.165  0.00  0.00    +0.008 A 
ATOM     17  C   UNL     1       6.669   0.345  -1.111  0.00  0.00    +0.001 A 
ATOM     18  C   UNL     1       5.866   0.017  -2.192  0.00  0.00    +0.001 A 
ATOM     19  C   UNL     1       4.514  -0.200  -1.980  0.00  0.00    +0.008 A 
ATOM     20  C   UNL     1       3.956  -0.090  -0.703  0.00  0.00    -0.018 A 
ATOM     21  C   UNL     1       2.608  -0.320  -0.478  0.00  0.00    +0.013 A 
ENDBRANCH   1  12
BRANCH   7  22
ATOM     22  O   UNL     1      -3.555  -0.556  -1.956  0.00  0.00    -0.386 OA
ATOM     23  H   UNL     1      -2.665  -0.965  -1.923  0.00  0.00    +0.210 HD
ENDBRANCH   7  22
BRANCH   6  24
ATOM     24  O   UNL     1      -2.138   2.487  -0.439  0.00  0.00    -0.384 OA
ATOM     25  H   UNL     1      -2.147   3.014  -1.252  0.00  0.00    +0.210 HD
ENDBRANCH   6  24
BRANCH   8  26
ATOM     26  O   UNL     1      -4.333   1.692   0.853  0.00  0.00    -0.386 OA
ATOM     27  H   UNL     1      -4.506   2.449   0.268  0.00  0.00    +0.210 HD
ENDBRANCH   8  26
BRANCH   9  28
ATOM     28  C   UNL     1      -4.526  -1.927   0.880  0.00  0.00    +0.190 C 
BRANCH  28  29
ATOM     29  O   UNL     1      -5.902  -1.743   1.238  0.00  0.00    -0.392 OA
ATOM     30  H   UNL     1      -6.412  -1.528   0.429  0.00  0.00    +0.210 HD
ENDBRANCH  28  29
ENDBRANCH   9  28
TORSDOF 6
