REMARK  Name = DB08500_4.pdb
REMARK  6 active torsions:
REMARK  status: ('A' for Active; 'I' for Inactive)
REMARK    1  A    between atoms: _1  and  _2
REMARK    2  A    between atoms: _15  and  _16
REMARK    3  A    between atoms: _16  and  _17
REMARK    4  A    between atoms: _18  and  _19
REMARK    5  A    between atoms: _20  and  _21
REMARK    6  A    between atoms: _22  and  _23
REMARK                            x       y       z     vdW  Elec       q    Type
REMARK                         _______ _______ _______ _____ _____    ______ ____
ROOT
ATOM      1  C   UNL     1       0.639   0.395   1.393  0.00  0.00    +0.116 C 
ATOM      2  N   UNL     1       0.299   1.813   1.349  0.00  0.00    -0.190 NA
ATOM      3  H   UNL     1       0.503   2.249   0.474  0.00  0.00    +0.155 HD
ATOM      4  O   UNL     1      -1.127   1.777   1.464  0.00  0.00    -0.261 OA
ATOM      5  C   UNL     1      -1.614   0.709   0.664  0.00  0.00    +0.220 C 
ATOM      6  C   UNL     1      -2.064   1.319  -0.656  0.00  0.00    +0.206 C 
ATOM      7  C   UNL     1      -2.961   0.338  -1.390  0.00  0.00    +0.179 C 
ATOM      8  C   UNL     1      -4.210   0.050  -0.525  0.00  0.00    +0.177 C 
ATOM      9  C   UNL     1      -3.884  -0.177   0.943  0.00  0.00    +0.178 C 
ATOM     10  O   UNL     1      -2.572  -0.029   1.370  0.00  0.00    -0.337 OA
ATOM     11  C   UNL     1      -0.407  -0.233   0.499  0.00  0.00    +0.095 C 
ENDROOT
BRANCH   1  12
ATOM     12  C   UNL     1       2.037   0.099   0.916  0.00  0.00    -0.028 A 
ATOM     13  C   UNL     1       2.826  -0.724   1.704  0.00  0.00    +0.006 A 
ATOM     14  C   UNL     1       4.130  -1.020   1.347  0.00  0.00    +0.009 A 
ATOM     15  C   UNL     1       4.662  -0.488   0.159  0.00  0.00    -0.018 A 
ATOM     16  C   UNL     1       5.992  -0.755  -0.220  0.00  0.00    +0.008 A 
ATOM     17  C   UNL     1       6.504  -0.218  -1.391  0.00  0.00    +0.001 A 
ATOM     18  C   UNL     1       5.731   0.587  -2.205  0.00  0.00    +0.001 A 
ATOM     19  C   UNL     1       4.423   0.859  -1.845  0.00  0.00    +0.008 A 
ATOM     20  C   UNL     1       3.879   0.325  -0.661  0.00  0.00    -0.018 A 
ATOM     21  C   UNL     1       2.556   0.601  -0.273  0.00  0.00    +0.013 A 
ENDBRANCH   1  12
BRANCH   7  22
ATOM     22  O   UNL     1      -2.245  -0.839  -1.694  0.00  0.00    -0.386 OA
ATOM     23  H   UNL     1      -2.883  -1.562  -1.900  0.00  0.00    +0.210 HD
ENDBRANCH   7  22
BRANCH   6  24
ATOM     24  O   UNL     1      -2.752   2.542  -0.455  0.00  0.00    -0.384 OA
ATOM     25  H   UNL     1      -2.888   2.683   0.511  0.00  0.00    +0.210 HD
ENDBRANCH   6  24
BRANCH   8  26
ATOM     26  O   UNL     1      -5.153   1.107  -0.650  0.00  0.00    -0.386 OA
ATOM     27  H   UNL     1      -5.450   1.199  -1.573  0.00  0.00    +0.210 HD
ENDBRANCH   8  26
BRANCH   9  28
ATOM     28  C   UNL     1      -4.289  -1.617   1.349  0.00  0.00    +0.190 C 
BRANCH  28  29
ATOM     29  O   UNL     1      -5.618  -1.926   0.953  0.00  0.00    -0.392 OA
ATOM     30  H   UNL     1      -5.638  -2.818   0.538  0.00  0.00    +0.210 HD
ENDBRANCH  28  29
ENDBRANCH   9  28
TORSDOF 6
