REMARK  Name = DB08569_4.pdb
REMARK  8 active torsions:
REMARK  status: ('A' for Active; 'I' for Inactive)
REMARK    1  A    between atoms: _1  and  _2
REMARK    2  A    between atoms: _1  and  _20
REMARK    3  A    between atoms: _1  and  _28
REMARK    4  A    between atoms: _2  and  _3
REMARK    5  A    between atoms: _3  and  _4
REMARK    6  A    between atoms: _8  and  _9
REMARK    7  A    between atoms: _17  and  _18
REMARK    8  A    between atoms: _20  and  _21
REMARK                            x       y       z     vdW  Elec       q    Type
REMARK                         _______ _______ _______ _____ _____    ______ ____
ROOT
ATOM      1  C   UNL     1      -0.327  -0.511  -1.183  0.00  0.00    +0.139 A 
ATOM      2  C   UNL     1       0.850  -0.687  -0.448  0.00  0.00    +0.057 A 
ATOM      3  C   UNL     1       2.037  -0.047  -0.833  0.00  0.00    +0.004 A 
ATOM      4  C   UNL     1       1.948   0.770  -1.960  0.00  0.00    +0.119 A 
ATOM      5  N   UNL     1       0.810   0.961  -2.663  0.00  0.00    -0.259 NA
ATOM      6  C   UNL     1      -0.313   0.330  -2.283  0.00  0.00    +0.156 A 
ENDROOT
BRANCH   3   7
ATOM      7  C   UNL     1       3.272  -0.224  -0.071  0.00  0.00    -0.016 A 
ATOM      8  C   UNL     1       3.608  -1.409   0.582  0.00  0.00    +0.010 A 
ATOM      9  C   UNL     1       4.800  -1.556   1.328  0.00  0.00    +0.028 A 
ATOM     10  C   UNL     1       5.676  -0.479   1.395  0.00  0.00    +0.066 A 
ATOM     11  N   UNL     1       6.872  -0.303   2.006  0.00  0.00    -0.277 N 
ATOM     12  H   UNL     1       7.403  -0.959   2.570  0.00  0.00    +0.189 HD
ATOM     13  N   UNL     1       7.344   0.934   1.778  0.00  0.00    -0.178 NA
ATOM     14  C   UNL     1       6.454   1.552   1.006  0.00  0.00    +0.067 A 
ATOM     15  C   UNL     1       6.625   2.951   0.536  0.00  0.00    +0.068 C 
ATOM     16  C   UNL     1       5.381   0.711   0.747  0.00  0.00    +0.023 A 
ATOM     17  C   UNL     1       4.188   0.836   0.033  0.00  0.00    +0.020 A 
ENDBRANCH   3   7
BRANCH   1  18
ATOM     18  O   UNL     1      -1.399  -1.220  -0.717  0.00  0.00    -0.485 OA
BRANCH  18  19
ATOM     19  C   UNL     1      -2.627  -1.077  -1.436  0.00  0.00    +0.283 C 
BRANCH  19  20
ATOM     20  C   UNL     1      -3.752  -1.889  -0.771  0.00  0.00    +0.103 C 
BRANCH  20  21
ATOM     21  N   UNL     1      -3.390  -3.339  -0.734  0.00  0.00    +0.223 N 
ATOM     22  H   UNL     1      -2.627  -3.504  -0.056  0.00  0.00    +0.200 HD
ATOM     23  H   UNL     1      -4.190  -3.911  -0.439  0.00  0.00    +0.200 HD
ATOM     24  H   UNL     1      -3.100  -3.683  -1.666  0.00  0.00    +0.200 HD
ENDBRANCH  20  21
BRANCH  20  25
ATOM     25  C   UNL     1      -4.076  -1.460   0.663  0.00  0.00    +0.092 C 
BRANCH  25  26
ATOM     26  C   UNL     1      -4.619  -0.066   0.724  0.00  0.00    -0.042 A 
ATOM     27  C   UNL     1      -3.774   1.023   0.932  0.00  0.00    +0.005 A 
ATOM     28  C   UNL     1      -4.295   2.312   0.934  0.00  0.00    +0.015 A 
ATOM     29  C   UNL     1      -5.653   2.532   0.748  0.00  0.00    +0.018 A 
ATOM     30 BR   UNL     1      -6.358   4.301   0.790  0.00  0.00    -0.050 Br
ATOM     31  C   UNL     1      -6.494   1.452   0.547  0.00  0.00    +0.015 A 
ATOM     32  C   UNL     1      -5.987   0.152   0.534  0.00  0.00    +0.005 A 
ENDBRANCH  25  26
ENDBRANCH  20  25
ENDBRANCH  19  20
ENDBRANCH  18  19
ENDBRANCH   1  18
TORSDOF 7
