REMARK  Name = DB08569_2.pdb
REMARK  8 active torsions:
REMARK  status: ('A' for Active; 'I' for Inactive)
REMARK    1  A    between atoms: _1  and  _2
REMARK    2  A    between atoms: _1  and  _20
REMARK    3  A    between atoms: _1  and  _28
REMARK    4  A    between atoms: _2  and  _3
REMARK    5  A    between atoms: _3  and  _4
REMARK    6  A    between atoms: _8  and  _9
REMARK    7  A    between atoms: _17  and  _18
REMARK    8  A    between atoms: _20  and  _21
REMARK                            x       y       z     vdW  Elec       q    Type
REMARK                         _______ _______ _______ _____ _____    ______ ____
ROOT
ATOM      1  C   UNL     1      -0.081   0.161  -0.989  0.00  0.00    +0.139 A 
ATOM      2  C   UNL     1       1.120  -0.302  -0.493  0.00  0.00    +0.057 A 
ATOM      3  C   UNL     1       2.208   0.600  -0.212  0.00  0.00    +0.004 A 
ATOM      4  C   UNL     1       1.916   1.919  -0.483  0.00  0.00    +0.119 A 
ATOM      5  N   UNL     1       0.741   2.372  -0.982  0.00  0.00    -0.259 NA
ATOM      6  C   UNL     1      -0.257   1.426  -1.235  0.00  0.00    +0.156 A 
ENDROOT
BRANCH   3   7
ATOM      7  C   UNL     1       3.438   0.127   0.317  0.00  0.00    -0.016 A 
ATOM      8  C   UNL     1       3.489  -0.971   1.152  0.00  0.00    +0.010 A 
ATOM      9  C   UNL     1       4.697  -1.454   1.683  0.00  0.00    +0.028 A 
ATOM     10  C   UNL     1       5.857  -0.797   1.350  0.00  0.00    +0.066 A 
ATOM     11  N   UNL     1       7.171  -1.034   1.712  0.00  0.00    -0.277 N 
ATOM     12  H   UNL     1       7.544  -1.761   2.312  0.00  0.00    +0.189 HD
ATOM     13  N   UNL     1       8.010  -0.105   1.131  0.00  0.00    -0.178 NA
ATOM     14  C   UNL     1       7.180   0.685   0.417  0.00  0.00    +0.067 A 
ATOM     15  C   UNL     1       7.652   1.868  -0.397  0.00  0.00    +0.068 C 
ATOM     16  C   UNL     1       5.847   0.293   0.528  0.00  0.00    +0.023 A 
ATOM     17  C   UNL     1       4.648   0.759   0.011  0.00  0.00    +0.020 A 
ENDBRANCH   3   7
BRANCH   1  18
ATOM     18  O   UNL     1      -0.885  -0.832  -1.069  0.00  0.00    -0.485 OA
BRANCH  18  19
ATOM     19  C   UNL     1      -2.047  -1.734  -1.494  0.00  0.00    +0.283 C 
BRANCH  19  20
ATOM     20  C   UNL     1      -3.253  -1.508  -0.700  0.00  0.00    +0.103 C 
BRANCH  20  21
ATOM     21  N   UNL     1      -2.922  -1.549   0.809  0.00  0.00    +0.223 N 
ATOM     22  H   UNL     1      -3.697  -1.930   1.305  0.00  0.00    +0.200 HD
ATOM     23  H   UNL     1      -2.657  -0.617   1.125  0.00  0.00    +0.200 HD
ATOM     24  H   UNL     1      -2.124  -2.139   0.925  0.00  0.00    +0.200 HD
ENDBRANCH  20  21
BRANCH  20  25
ATOM     25  C   UNL     1      -3.900  -0.190  -1.144  0.00  0.00    +0.092 C 
BRANCH  25  26
ATOM     26  C   UNL     1      -5.167   0.109  -0.443  0.00  0.00    -0.042 A 
ATOM     27  C   UNL     1      -6.380  -0.337  -0.955  0.00  0.00    +0.005 A 
ATOM     28  C   UNL     1      -7.569  -0.004  -0.264  0.00  0.00    +0.015 A 
ATOM     29  C   UNL     1      -7.537   0.745   0.897  0.00  0.00    +0.018 A 
ATOM     30 BR   UNL     1      -9.121   1.188   1.815  0.00  0.00    -0.050 Br
ATOM     31  C   UNL     1      -6.317   1.183   1.403  0.00  0.00    +0.015 A 
ATOM     32  C   UNL     1      -5.151   0.862   0.731  0.00  0.00    +0.005 A 
ENDBRANCH  25  26
ENDBRANCH  20  25
ENDBRANCH  19  20
ENDBRANCH  18  19
ENDBRANCH   1  18
TORSDOF 7
