REMARK  Name = DB08569_0.pdb
REMARK  8 active torsions:
REMARK  status: ('A' for Active; 'I' for Inactive)
REMARK    1  A    between atoms: _1  and  _2
REMARK    2  A    between atoms: _1  and  _20
REMARK    3  A    between atoms: _1  and  _28
REMARK    4  A    between atoms: _2  and  _3
REMARK    5  A    between atoms: _3  and  _4
REMARK    6  A    between atoms: _8  and  _9
REMARK    7  A    between atoms: _17  and  _18
REMARK    8  A    between atoms: _20  and  _21
REMARK                            x       y       z     vdW  Elec       q    Type
REMARK                         _______ _______ _______ _____ _____    ______ ____
ROOT
ATOM      1  C   UNL     1      -0.132   0.731  -0.654  0.00  0.00    +0.139 A 
ATOM      2  C   UNL     1       1.070   0.728   0.104  0.00  0.00    +0.057 A 
ATOM      3  C   UNL     1       2.297   0.732  -0.514  0.00  0.00    +0.004 A 
ATOM      4  C   UNL     1       2.273   0.715  -1.903  0.00  0.00    +0.119 A 
ATOM      5  N   UNL     1       1.183   0.706  -2.667  0.00  0.00    -0.259 NA
ATOM      6  C   UNL     1      -0.016   0.752  -2.056  0.00  0.00    +0.156 A 
ENDROOT
BRANCH   3   7
ATOM      7  C   UNL     1       3.519   0.718   0.321  0.00  0.00    -0.016 A 
ATOM      8  C   UNL     1       3.654   1.329   1.542  0.00  0.00    +0.010 A 
ATOM      9  C   UNL     1       4.824   1.306   2.322  0.00  0.00    +0.028 A 
ATOM     10  C   UNL     1       5.924   0.617   1.780  0.00  0.00    +0.066 A 
ATOM     11  N   UNL     1       7.211   0.416   2.244  0.00  0.00    -0.277 N 
ATOM     12  H   UNL     1       7.635   0.722   3.080  0.00  0.00    +0.189 HD
ATOM     13  N   UNL     1       7.939  -0.304   1.399  0.00  0.00    -0.178 NA
ATOM     14  C   UNL     1       7.126  -0.578   0.358  0.00  0.00    +0.067 A 
ATOM     15  C   UNL     1       7.583  -1.350  -0.788  0.00  0.00    +0.068 C 
ATOM     16  C   UNL     1       5.849  -0.004   0.595  0.00  0.00    +0.023 A 
ATOM     17  C   UNL     1       4.654   0.007  -0.167  0.00  0.00    +0.020 A 
ENDBRANCH   3   7
BRANCH   1  18
ATOM     18  O   UNL     1      -1.232   0.622   0.125  0.00  0.00    -0.485 OA
BRANCH  18  19
ATOM     19  C   UNL     1      -2.495   0.762  -0.440  0.00  0.00    +0.283 C 
BRANCH  19  20
ATOM     20  C   UNL     1      -2.978  -0.528  -1.123  0.00  0.00    +0.103 C 
BRANCH  20  21
ATOM     21  N   UNL     1      -2.719  -1.702  -0.213  0.00  0.00    +0.223 N 
ATOM     22  H   UNL     1      -1.698  -1.843  -0.066  0.00  0.00    +0.200 HD
ATOM     23  H   UNL     1      -3.082  -2.583  -0.556  0.00  0.00    +0.200 HD
ATOM     24  H   UNL     1      -3.097  -1.516   0.743  0.00  0.00    +0.200 HD
ENDBRANCH  20  21
BRANCH  20  25
ATOM     25  C   UNL     1      -4.462  -0.497  -1.571  0.00  0.00    +0.092 C 
BRANCH  25  26
ATOM     26  C   UNL     1      -5.448  -0.337  -0.443  0.00  0.00    -0.042 A 
ATOM     27  C   UNL     1      -5.836   0.943  -0.035  0.00  0.00    +0.005 A 
ATOM     28  C   UNL     1      -6.729   1.106   1.034  0.00  0.00    +0.015 A 
ATOM     29  C   UNL     1      -7.257   0.005   1.693  0.00  0.00    +0.018 A 
ATOM     30 BR   UNL     1      -8.477   0.212   3.096  0.00  0.00    -0.050 Br
ATOM     31  C   UNL     1      -6.880  -1.267   1.275  0.00  0.00    +0.015 A 
ATOM     32  C   UNL     1      -5.979  -1.431   0.203  0.00  0.00    +0.005 A 
ENDBRANCH  25  26
ENDBRANCH  20  25
ENDBRANCH  19  20
ENDBRANCH  18  19
ENDBRANCH   1  18
TORSDOF 7
