REMARK  Name = DB08503_2.pdb
REMARK  7 active torsions:
REMARK  status: ('A' for Active; 'I' for Inactive)
REMARK    1  A    between atoms: _1  and  _2
REMARK    2  A    between atoms: _5  and  _8
REMARK    3  A    between atoms: _12  and  _13
REMARK    4  A    between atoms: _13  and  _14
REMARK    5  A    between atoms: _15  and  _16
REMARK    6  A    between atoms: _17  and  _18
REMARK    7  A    between atoms: _19  and  _20
REMARK                            x       y       z     vdW  Elec       q    Type
REMARK                         _______ _______ _______ _____ _____    ______ ____
ROOT
ATOM      1  C   UNL     1       1.179   0.917  -1.044  0.00  0.00    +0.116 C 
ATOM      2  N   UNL     1       0.767   0.130  -2.210  0.00  0.00    -0.190 NA
ATOM      3  H   UNL     1       0.864  -0.925  -2.027  0.00  0.00    +0.155 HD
ATOM      4  O   UNL     1      -0.638   0.311  -2.289  0.00  0.00    -0.261 OA
ATOM      5  C   UNL     1      -1.185   0.375  -0.976  0.00  0.00    +0.220 C 
ATOM      6  C   UNL     1      -1.530  -1.095  -0.561  0.00  0.00    +0.206 C 
ATOM      7  C   UNL     1      -2.474  -1.171   0.685  0.00  0.00    +0.179 C 
ATOM      8  C   UNL     1      -3.279   0.152   0.931  0.00  0.00    +0.177 C 
ATOM      9  C   UNL     1      -3.529   0.835  -0.430  0.00  0.00    +0.178 C 
ATOM     10  O   UNL     1      -2.284   1.280  -0.996  0.00  0.00    -0.337 OA
ATOM     11  C   UNL     1      -0.065   0.963  -0.137  0.00  0.00    +0.095 C 
ENDROOT
BRANCH   1  12
ATOM     12  C   UNL     1       2.458   0.446  -0.385  0.00  0.00    -0.028 A 
ATOM     13  C   UNL     1       3.481  -0.111  -1.214  0.00  0.00    +0.005 A 
ATOM     14  C   UNL     1       4.662  -0.626  -0.649  0.00  0.00    +0.003 A 
ATOM     15  C   UNL     1       4.864  -0.593   0.723  0.00  0.00    -0.050 A 
ATOM     16  C   UNL     1       6.136  -1.110   1.325  0.00  0.00    +0.044 C 
ATOM     17  C   UNL     1       3.898   0.004   1.534  0.00  0.00    +0.003 A 
ATOM     18  C   UNL     1       2.718   0.537   0.983  0.00  0.00    +0.005 A 
ENDBRANCH   1  12
BRANCH   7  19
ATOM     19  O   UNL     1      -1.887  -1.480   1.939  0.00  0.00    -0.386 OA
ATOM     20  H   UNL     1      -1.018  -1.904   1.811  0.00  0.00    +0.210 HD
ENDBRANCH   7  19
BRANCH   6  21
ATOM     21  O   UNL     1      -2.223  -1.779  -1.624  0.00  0.00    -0.384 OA
ATOM     22  H   UNL     1      -1.885  -1.375  -2.470  0.00  0.00    +0.210 HD
ENDBRANCH   6  21
BRANCH   8  23
ATOM     23  O   UNL     1      -4.517  -0.140   1.614  0.00  0.00    -0.386 OA
ATOM     24  H   UNL     1      -4.284  -0.888   2.260  0.00  0.00    +0.210 HD
ENDBRANCH   8  23
BRANCH   9  25
ATOM     25  C   UNL     1      -4.546   2.006  -0.471  0.00  0.00    +0.190 C 
BRANCH  25  26
ATOM     26  O   UNL     1      -5.888   1.619  -0.283  0.00  0.00    -0.392 OA
ATOM     27  H   UNL     1      -5.858   0.646   0.036  0.00  0.00    +0.210 HD
ENDBRANCH  25  26
ENDBRANCH   9  25
TORSDOF 6
