REMARK  Name = DB08503_3.pdb
REMARK  7 active torsions:
REMARK  status: ('A' for Active; 'I' for Inactive)
REMARK    1  A    between atoms: _1  and  _2
REMARK    2  A    between atoms: _5  and  _8
REMARK    3  A    between atoms: _12  and  _13
REMARK    4  A    between atoms: _13  and  _14
REMARK    5  A    between atoms: _15  and  _16
REMARK    6  A    between atoms: _17  and  _18
REMARK    7  A    between atoms: _19  and  _20
REMARK                            x       y       z     vdW  Elec       q    Type
REMARK                         _______ _______ _______ _____ _____    ______ ____
ROOT
ATOM      1  C   UNL     1       0.906   0.449  -0.511  0.00  0.00    +0.116 C 
ATOM      2  N   UNL     1       0.668  -0.207  -1.766  0.00  0.00    -0.190 NA
ATOM      3  H   UNL     1       0.723   0.437  -2.627  0.00  0.00    +0.155 HD
ATOM      4  O   UNL     1      -0.817  -0.528  -1.777  0.00  0.00    -0.261 OA
ATOM      5  C   UNL     1      -1.192  -0.425  -0.359  0.00  0.00    +0.220 C 
ATOM      6  C   UNL     1      -2.010  -1.634   0.110  0.00  0.00    +0.206 C 
ATOM      7  C   UNL     1      -3.494  -1.490  -0.230  0.00  0.00    +0.179 C 
ATOM      8  C   UNL     1      -3.963  -0.165   0.320  0.00  0.00    +0.177 C 
ATOM      9  C   UNL     1      -3.210   0.933  -0.409  0.00  0.00    +0.178 C 
ATOM     10  O   UNL     1      -1.829   0.841  -0.066  0.00  0.00    -0.337 OA
ATOM     11  C   UNL     1       0.071  -0.373   0.432  0.00  0.00    +0.095 C 
ENDROOT
BRANCH   1  12
ATOM     12  C   UNL     1       2.367   0.300  -0.210  0.00  0.00    -0.028 A 
ATOM     13  C   UNL     1       2.819  -0.149   1.047  0.00  0.00    +0.005 A 
ATOM     14  C   UNL     1       4.193  -0.273   1.352  0.00  0.00    +0.003 A 
ATOM     15  C   UNL     1       5.108   0.059   0.378  0.00  0.00    -0.050 A 
ATOM     16  C   UNL     1       6.589  -0.087   0.686  0.00  0.00    +0.044 C 
ATOM     17  C   UNL     1       4.699   0.487  -0.874  0.00  0.00    +0.003 A 
ATOM     18  C   UNL     1       3.335   0.604  -1.164  0.00  0.00    +0.005 A 
ENDBRANCH   1  12
BRANCH   7  19
ATOM     19  O   UNL     1      -4.223  -2.596   0.410  0.00  0.00    -0.386 OA
ATOM     20  H   UNL     1      -3.883  -2.664   1.324  0.00  0.00    +0.210 HD
ENDBRANCH   7  19
BRANCH   6  21
ATOM     21  O   UNL     1      -1.451  -2.836  -0.507  0.00  0.00    -0.384 OA
ATOM     22  H   UNL     1      -1.579  -3.586   0.146  0.00  0.00    +0.210 HD
ENDBRANCH   6  21
BRANCH   8  23
ATOM     23  O   UNL     1      -5.397   0.006   0.202  0.00  0.00    -0.386 OA
ATOM     24  H   UNL     1      -5.598   0.571  -0.566  0.00  0.00    +0.210 HD
ENDBRANCH   8  23
BRANCH   9  25
ATOM     25  C   UNL     1      -3.607   2.301   0.106  0.00  0.00    +0.190 C 
BRANCH  25  26
ATOM     26  O   UNL     1      -2.869   3.296  -0.678  0.00  0.00    -0.392 OA
ATOM     27  H   UNL     1      -2.516   3.942  -0.025  0.00  0.00    +0.210 HD
ENDBRANCH  25  26
ENDBRANCH   9  25
TORSDOF 6
