REMARK  Name = DB08503_4.pdb
REMARK  7 active torsions:
REMARK  status: ('A' for Active; 'I' for Inactive)
REMARK    1  A    between atoms: _1  and  _2
REMARK    2  A    between atoms: _5  and  _8
REMARK    3  A    between atoms: _12  and  _13
REMARK    4  A    between atoms: _13  and  _14
REMARK    5  A    between atoms: _15  and  _16
REMARK    6  A    between atoms: _17  and  _18
REMARK    7  A    between atoms: _19  and  _20
REMARK                            x       y       z     vdW  Elec       q    Type
REMARK                         _______ _______ _______ _____ _____    ______ ____
ROOT
ATOM      1  C   UNL     1       0.977   0.653  -0.803  0.00  0.00    +0.116 C 
ATOM      2  N   UNL     1       0.753  -0.141  -1.989  0.00  0.00    -0.190 NA
ATOM      3  H   UNL     1       1.407  -0.950  -2.199  0.00  0.00    +0.155 HD
ATOM      4  O   UNL     1      -0.639  -0.848  -1.800  0.00  0.00    -0.261 OA
ATOM      5  C   UNL     1      -1.196  -0.230  -0.634  0.00  0.00    +0.220 C 
ATOM      6  C   UNL     1      -1.851  -1.374   0.131  0.00  0.00    +0.206 C 
ATOM      7  C   UNL     1      -3.329  -1.331   0.040  0.00  0.00    +0.179 C 
ATOM      8  C   UNL     1      -3.751   0.025   0.440  0.00  0.00    +0.177 C 
ATOM      9  C   UNL     1      -3.393   0.943  -0.711  0.00  0.00    +0.178 C 
ATOM     10  O   UNL     1      -2.006   0.860  -1.166  0.00  0.00    -0.337 OA
ATOM     11  C   UNL     1      -0.107   0.380   0.188  0.00  0.00    +0.095 C 
ENDROOT
BRANCH   1  12
ATOM     12  C   UNL     1       2.364   0.394  -0.344  0.00  0.00    -0.028 A 
ATOM     13  C   UNL     1       3.385   0.219  -1.295  0.00  0.00    +0.005 A 
ATOM     14  C   UNL     1       4.678  -0.031  -0.911  0.00  0.00    +0.003 A 
ATOM     15  C   UNL     1       5.008  -0.097   0.438  0.00  0.00    -0.050 A 
ATOM     16  C   UNL     1       6.415  -0.343   0.895  0.00  0.00    +0.044 C 
ATOM     17  C   UNL     1       4.010   0.093   1.389  0.00  0.00    +0.003 A 
ATOM     18  C   UNL     1       2.696   0.338   1.000  0.00  0.00    +0.005 A 
ENDBRANCH   1  12
BRANCH   7  19
ATOM     19  O   UNL     1      -3.791  -2.285   1.049  0.00  0.00    -0.386 OA
ATOM     20  H   UNL     1      -4.029  -3.097   0.565  0.00  0.00    +0.210 HD
ENDBRANCH   7  19
BRANCH   6  21
ATOM     21  O   UNL     1      -1.343  -2.640  -0.384  0.00  0.00    -0.384 OA
ATOM     22  H   UNL     1      -1.456  -3.266   0.334  0.00  0.00    +0.210 HD
ENDBRANCH   6  21
BRANCH   8  23
ATOM     23  O   UNL     1      -5.182   0.154   0.542  0.00  0.00    -0.386 OA
ATOM     24  H   UNL     1      -5.471  -0.518   1.168  0.00  0.00    +0.210 HD
ENDBRANCH   8  23
BRANCH   9  25
ATOM     25  C   UNL     1      -3.687   2.385  -0.366  0.00  0.00    +0.190 C 
BRANCH  25  26
ATOM     26  O   UNL     1      -2.807   2.918   0.668  0.00  0.00    -0.392 OA
ATOM     27  H   UNL     1      -2.541   2.205   1.276  0.00  0.00    +0.210 HD
ENDBRANCH  25  26
ENDBRANCH   9  25
TORSDOF 6
