REMARK  Name = DB08569_1.pdb
REMARK  8 active torsions:
REMARK  status: ('A' for Active; 'I' for Inactive)
REMARK    1  A    between atoms: _1  and  _2
REMARK    2  A    between atoms: _1  and  _20
REMARK    3  A    between atoms: _1  and  _28
REMARK    4  A    between atoms: _2  and  _3
REMARK    5  A    between atoms: _3  and  _4
REMARK    6  A    between atoms: _8  and  _9
REMARK    7  A    between atoms: _17  and  _18
REMARK    8  A    between atoms: _20  and  _21
REMARK                            x       y       z     vdW  Elec       q    Type
REMARK                         _______ _______ _______ _____ _____    ______ ____
ROOT
ATOM      1  C   UNL     1      -0.522   0.904  -0.726  0.00  0.00    +0.139 A 
ATOM      2  C   UNL     1       0.598   0.205  -0.409  0.00  0.00    +0.057 A 
ATOM      3  C   UNL     1       1.801   0.909  -0.037  0.00  0.00    +0.004 A 
ATOM      4  C   UNL     1       1.742   2.288  -0.052  0.00  0.00    +0.119 A 
ATOM      5  N   UNL     1       0.666   2.992  -0.384  0.00  0.00    -0.259 NA
ATOM      6  C   UNL     1      -0.452   2.271  -0.717  0.00  0.00    +0.156 A 
ENDROOT
BRANCH   3   7
ATOM      7  C   UNL     1       3.024   0.201   0.312  0.00  0.00    -0.016 A 
ATOM      8  C   UNL     1       3.015  -1.037   0.981  0.00  0.00    +0.010 A 
ATOM      9  C   UNL     1       4.209  -1.720   1.302  0.00  0.00    +0.028 A 
ATOM     10  C   UNL     1       5.414  -1.093   0.938  0.00  0.00    +0.066 A 
ATOM     11  N   UNL     1       6.707  -1.449   1.089  0.00  0.00    -0.277 N 
ATOM     12  H   UNL     1       7.074  -2.282   1.517  0.00  0.00    +0.189 HD
ATOM     13  N   UNL     1       7.604  -0.539   0.590  0.00  0.00    -0.178 NA
ATOM     14  C   UNL     1       6.802   0.425   0.111  0.00  0.00    +0.067 A 
ATOM     15  C   UNL     1       7.332   1.675  -0.533  0.00  0.00    +0.068 C 
ATOM     16  C   UNL     1       5.454   0.127   0.298  0.00  0.00    +0.023 A 
ATOM     17  C   UNL     1       4.263   0.770  -0.020  0.00  0.00    +0.020 A 
ENDBRANCH   3   7
BRANCH   1  18
ATOM     18  O   UNL     1      -1.750   0.488  -0.985  0.00  0.00    -0.485 OA
BRANCH  18  19
ATOM     19  C   UNL     1      -2.416  -0.793  -1.365  0.00  0.00    +0.283 C 
BRANCH  19  20
ATOM     20  C   UNL     1      -2.852  -1.613  -0.154  0.00  0.00    +0.103 C 
BRANCH  20  21
ATOM     21  N   UNL     1      -1.662  -2.381   0.390  0.00  0.00    +0.223 N 
ATOM     22  H   UNL     1      -1.175  -1.843   1.116  0.00  0.00    +0.200 HD
ATOM     23  H   UNL     1      -1.968  -3.255   0.809  0.00  0.00    +0.200 HD
ATOM     24  H   UNL     1      -1.016  -2.601  -0.359  0.00  0.00    +0.200 HD
ENDBRANCH  20  21
BRANCH  20  25
ATOM     25  C   UNL     1      -3.493  -0.810   0.991  0.00  0.00    +0.092 C 
BRANCH  25  26
ATOM     26  C   UNL     1      -4.763  -0.177   0.484  0.00  0.00    -0.042 A 
ATOM     27  C   UNL     1      -5.944  -0.938   0.453  0.00  0.00    +0.005 A 
ATOM     28  C   UNL     1      -7.106  -0.383  -0.068  0.00  0.00    +0.015 A 
ATOM     29  C   UNL     1      -7.105   0.908  -0.565  0.00  0.00    +0.018 A 
ATOM     30 BR   UNL     1      -8.694   1.646  -1.258  0.00  0.00    -0.050 Br
ATOM     31  C   UNL     1      -5.932   1.659  -0.560  0.00  0.00    +0.015 A 
ATOM     32  C   UNL     1      -4.760   1.133  -0.031  0.00  0.00    +0.005 A 
ENDBRANCH  25  26
ENDBRANCH  20  25
ENDBRANCH  19  20
ENDBRANCH  18  19
ENDBRANCH   1  18
TORSDOF 7
