REMARK  Name = DB08500_3.pdb
REMARK  6 active torsions:
REMARK  status: ('A' for Active; 'I' for Inactive)
REMARK    1  A    between atoms: _1  and  _2
REMARK    2  A    between atoms: _15  and  _16
REMARK    3  A    between atoms: _16  and  _17
REMARK    4  A    between atoms: _18  and  _19
REMARK    5  A    between atoms: _20  and  _21
REMARK    6  A    between atoms: _22  and  _23
REMARK                            x       y       z     vdW  Elec       q    Type
REMARK                         _______ _______ _______ _____ _____    ______ ____
ROOT
ATOM      1  C   UNL     1       0.538  -0.500   0.654  0.00  0.00    +0.116 C 
ATOM      2  N   UNL     1      -0.019   0.451   1.608  0.00  0.00    -0.190 NA
ATOM      3  H   UNL     1       0.356   1.397   1.435  0.00  0.00    +0.155 HD
ATOM      4  O   UNL     1      -1.406   0.547   1.371  0.00  0.00    -0.261 OA
ATOM      5  C   UNL     1      -1.693   0.070   0.057  0.00  0.00    +0.220 C 
ATOM      6  C   UNL     1      -2.296   1.212  -0.779  0.00  0.00    +0.206 C 
ATOM      7  C   UNL     1      -3.730   1.012  -1.261  0.00  0.00    +0.179 C 
ATOM      8  C   UNL     1      -4.573   0.020  -0.443  0.00  0.00    +0.177 C 
ATOM      9  C   UNL     1      -3.803  -0.509   0.750  0.00  0.00    +0.178 C 
ATOM     10  O   UNL     1      -2.575  -1.025   0.244  0.00  0.00    -0.337 OA
ATOM     11  C   UNL     1      -0.404  -0.473  -0.526  0.00  0.00    +0.095 C 
ENDROOT
BRANCH   1  12
ATOM     12  C   UNL     1       1.942  -0.116   0.259  0.00  0.00    -0.028 A 
ATOM     13  C   UNL     1       2.228   1.144  -0.270  0.00  0.00    +0.006 A 
ATOM     14  C   UNL     1       3.508   1.516  -0.622  0.00  0.00    +0.009 A 
ATOM     15  C   UNL     1       4.558   0.610  -0.467  0.00  0.00    -0.018 A 
ATOM     16  C   UNL     1       5.852   0.960  -0.815  0.00  0.00    +0.008 A 
ATOM     17  C   UNL     1       6.888   0.048  -0.670  0.00  0.00    +0.001 A 
ATOM     18  C   UNL     1       6.632  -1.215  -0.161  0.00  0.00    +0.001 A 
ATOM     19  C   UNL     1       5.351  -1.579   0.200  0.00  0.00    +0.008 A 
ATOM     20  C   UNL     1       4.291  -0.673   0.046  0.00  0.00    -0.018 A 
ATOM     21  C   UNL     1       2.998  -1.021   0.403  0.00  0.00    +0.013 A 
ENDBRANCH   1  12
BRANCH   7  22
ATOM     22  O   UNL     1      -3.711   0.608  -2.632  0.00  0.00    -0.386 OA
ATOM     23  H   UNL     1      -3.359   1.360  -3.166  0.00  0.00    +0.210 HD
ENDBRANCH   7  22
BRANCH   6  24
ATOM     24  O   UNL     1      -2.178   2.475  -0.117  0.00  0.00    -0.384 OA
ATOM     25  H   UNL     1      -2.920   2.604   0.509  0.00  0.00    +0.210 HD
ENDBRANCH   6  24
BRANCH   8  26
ATOM     26  O   UNL     1      -5.782   0.632  -0.015  0.00  0.00    -0.386 OA
ATOM     27  H   UNL     1      -5.631   1.181   0.777  0.00  0.00    +0.210 HD
ENDBRANCH   8  26
BRANCH   9  28
ATOM     28  C   UNL     1      -4.532  -1.574   1.577  0.00  0.00    +0.190 C 
BRANCH  28  29
ATOM     29  O   UNL     1      -3.642  -1.975   2.620  0.00  0.00    -0.392 OA
ATOM     30  H   UNL     1      -2.732  -2.046   2.252  0.00  0.00    +0.210 HD
ENDBRANCH  28  29
ENDBRANCH   9  28
TORSDOF 6
