REMARK  Name = DB11878_1.pdb
REMARK  12 active torsions:
REMARK  status: ('A' for Active; 'I' for Inactive)
REMARK    1  A    between atoms: _1  and  _2
REMARK    2  A    between atoms: _2  and  _3
REMARK    3  A    between atoms: _5  and  _6
REMARK    4  A    between atoms: _6  and  _7
REMARK    5  A    between atoms: _7  and  _8
REMARK    6  A    between atoms: _8  and  _9
REMARK    7  A    between atoms: _17  and  _21
REMARK    8  A    between atoms: _21  and  _22
REMARK    9  A    between atoms: _27  and  _31
REMARK   10  A    between atoms: _29  and  _30
REMARK   11  A    between atoms: _34  and  _35
REMARK   12  A    between atoms: _35  and  _36
REMARK                            x       y       z     vdW  Elec       q    Type
REMARK                         _______ _______ _______ _____ _____    ______ ____
ROOT
ATOM      1  C   UNL     1      -0.501  -2.200   0.145  0.00  0.00    +0.120 C 
ATOM      2  O   UNL     1      -0.180  -2.528  -1.212  0.00  0.00    -0.454 OA
ATOM      3  C   UNL     1       0.757  -1.887  -1.948  0.00  0.00    +0.335 C 
ATOM      4  O   UNL     1       0.822  -2.054  -3.134  0.00  0.00    -0.245 OA
ATOM      5  C   UNL     1       1.679  -0.988  -1.224  0.00  0.00    +0.032 C 
ATOM      6  C   UNL     1       1.668  -0.787   0.129  0.00  0.00    -0.118 C 
ATOM      7  O   UNL     1       2.394  -0.064   0.843  0.00  0.00    -0.876 OA
ATOM      8  C   UNL     1       0.614  -1.562   0.955  0.00  0.00    +0.067 C 
ENDROOT
BRANCH   1   9
ATOM      9  C   UNL     1      -0.970  -3.534   0.802  0.00  0.00    +0.033 C 
ATOM     10  C   UNL     1       0.117  -4.603   0.814  0.00  0.00    +0.007 C 
ATOM     11  C   UNL     1      -0.370  -5.756  -0.037  0.00  0.00    +0.000 C 
ATOM     12  C   UNL     1      -1.875  -5.590  -0.156  0.00  0.00    +0.000 C 
ATOM     13  C   UNL     1      -2.147  -4.121   0.006  0.00  0.00    +0.007 C 
ENDBRANCH   1   9
BRANCH   5  14
ATOM     14  C   UNL     1       2.692  -0.306  -2.125  0.00  0.00    +0.119 C 
BRANCH  14  15
ATOM     15  C   UNL     1       3.759   0.609  -1.448  0.00  0.00    +0.159 A 
ATOM     16  N   UNL     1       3.565   2.011  -1.351  0.00  0.00    -0.183 NA
ATOM     17  C   UNL     1       4.699   2.401  -0.738  0.00  0.00    +0.307 A 
ATOM     18  N   UNL     1       5.111   3.672  -0.369  0.00  0.00    -0.372 NA
ATOM     19  C   UNL     1       6.306   3.845   0.179  0.00  0.00    +0.094 C 
ATOM     20  C   UNL     1       6.802   5.209   0.582  0.00  0.00    +0.080 C 
ATOM     21  C   UNL     1       7.197   2.674   0.397  0.00  0.00    +0.059 C 
ATOM     22  C   UNL     1       6.759   1.462   0.029  0.00  0.00    +0.047 C 
ATOM     23  C   UNL     1       7.604   0.233   0.206  0.00  0.00    +0.066 C 
ATOM     24  N   UNL     1       5.510   1.313  -0.540  0.00  0.00    -0.191 N 
ATOM     25  N   UNL     1       4.908   0.197  -1.057  0.00  0.00    -0.147 NA
ENDBRANCH  14  15
ENDBRANCH   5  14
BRANCH   1  26
ATOM     26  C   UNL     1      -1.766  -1.305   0.213  0.00  0.00    +0.053 C 
BRANCH  26  27
ATOM     27  C   UNL     1      -1.561   0.056  -0.410  0.00  0.00    +0.039 C 
BRANCH  27  32
ATOM     28  C   UNL     1      -4.163   2.279   1.044  0.00  0.00    +0.042 A 
ATOM     29  N   UNL     1      -5.173   2.267   0.105  0.00  0.00    -0.257 NA
ATOM     30  C   UNL     1      -4.976   1.521  -1.007  0.00  0.00    +0.042 A 
ATOM     31  C   UNL     1      -3.841   0.799  -1.196  0.00  0.00    +0.027 A 
ATOM     32  C   UNL     1      -2.799   0.826  -0.245  0.00  0.00    -0.044 A 
ATOM     33  C   UNL     1      -3.025   1.602   0.894  0.00  0.00    +0.027 A 
BRANCH  28  35
ATOM     34  C   UNL     1      -3.841   4.550   1.947  0.00  0.00    +0.010 C 
ATOM     35  C   UNL     1      -4.390   3.168   2.262  0.00  0.00    +0.052 C 
ENDBRANCH  28  35
BRANCH  30  36
ATOM     36  C   UNL     1      -6.098   1.485  -2.032  0.00  0.00    +0.052 C 
ATOM     37  C   UNL     1      -7.089   0.381  -1.689  0.00  0.00    +0.010 C 
ENDBRANCH  30  36
ENDBRANCH  27  32
ENDBRANCH  26  27
ENDBRANCH   1  26
TORSDOF 8
