REMARK  Name = DB11878_4.pdb
REMARK  12 active torsions:
REMARK  status: ('A' for Active; 'I' for Inactive)
REMARK    1  A    between atoms: _1  and  _2
REMARK    2  A    between atoms: _2  and  _3
REMARK    3  A    between atoms: _5  and  _6
REMARK    4  A    between atoms: _6  and  _7
REMARK    5  A    between atoms: _7  and  _8
REMARK    6  A    between atoms: _8  and  _9
REMARK    7  A    between atoms: _17  and  _21
REMARK    8  A    between atoms: _21  and  _22
REMARK    9  A    between atoms: _27  and  _31
REMARK   10  A    between atoms: _29  and  _30
REMARK   11  A    between atoms: _34  and  _35
REMARK   12  A    between atoms: _35  and  _36
REMARK                            x       y       z     vdW  Elec       q    Type
REMARK                         _______ _______ _______ _____ _____    ______ ____
ROOT
ATOM      1  C   UNL     1      -0.220  -1.161   0.393  0.00  0.00    +0.120 C 
ATOM      2  O   UNL     1       0.717  -0.499  -0.508  0.00  0.00    -0.454 OA
ATOM      3  C   UNL     1       2.053  -0.730  -0.401  0.00  0.00    +0.335 C 
ATOM      4  O   UNL     1       2.763  -0.630  -1.379  0.00  0.00    -0.245 OA
ATOM      5  C   UNL     1       2.538  -1.109   0.931  0.00  0.00    +0.032 C 
ATOM      6  C   UNL     1       1.745  -1.226   2.030  0.00  0.00    -0.118 C 
ATOM      7  O   UNL     1       2.076  -1.574   3.158  0.00  0.00    -0.876 OA
ATOM      8  C   UNL     1       0.209  -0.921   1.817  0.00  0.00    +0.067 C 
ENDROOT
BRANCH   1   9
ATOM      9  C   UNL     1      -0.157  -2.631   0.030  0.00  0.00    +0.033 C 
ATOM     10  C   UNL     1      -0.609  -2.898  -1.403  0.00  0.00    +0.007 C 
ATOM     11  C   UNL     1      -0.720  -4.403  -1.361  0.00  0.00    +0.000 C 
ATOM     12  C   UNL     1      -1.558  -4.615  -0.108  0.00  0.00    +0.000 C 
ATOM     13  C   UNL     1      -0.923  -3.644   0.880  0.00  0.00    +0.007 C 
ENDBRANCH   1   9
BRANCH   5  14
ATOM     14  C   UNL     1       4.009  -1.421   1.163  0.00  0.00    +0.119 C 
BRANCH  14  15
ATOM     15  C   UNL     1       4.932  -0.239   0.852  0.00  0.00    +0.159 A 
ATOM     16  N   UNL     1       5.299   0.746   1.731  0.00  0.00    -0.183 NA
ATOM     17  C   UNL     1       6.125   1.540   1.012  0.00  0.00    +0.307 A 
ATOM     18  N   UNL     1       6.823   2.697   1.361  0.00  0.00    -0.372 NA
ATOM     19  C   UNL     1       7.575   3.292   0.504  0.00  0.00    +0.094 C 
ATOM     20  C   UNL     1       8.360   4.561   0.836  0.00  0.00    +0.080 C 
ATOM     21  C   UNL     1       7.721   2.787  -0.878  0.00  0.00    +0.059 C 
ATOM     22  C   UNL     1       7.051   1.679  -1.197  0.00  0.00    +0.047 C 
ATOM     23  C   UNL     1       7.137   1.107  -2.568  0.00  0.00    +0.066 C 
ATOM     24  N   UNL     1       6.234   1.044  -0.225  0.00  0.00    -0.191 N 
ATOM     25  N   UNL     1       5.490  -0.087  -0.331  0.00  0.00    -0.147 NA
ENDBRANCH  14  15
ENDBRANCH   5  14
BRANCH   1  26
ATOM     26  C   UNL     1      -1.574  -0.480   0.091  0.00  0.00    +0.053 C 
BRANCH  26  27
ATOM     27  C   UNL     1      -2.820  -1.004   0.796  0.00  0.00    +0.039 C 
BRANCH  27  32
ATOM     28  C   UNL     1      -5.802   0.412  -0.995  0.00  0.00    +0.042 A 
ATOM     29  N   UNL     1      -6.093   1.509  -0.272  0.00  0.00    -0.257 NA
ATOM     30  C   UNL     1      -5.311   1.795   0.820  0.00  0.00    +0.042 A 
ATOM     31  C   UNL     1      -4.269   1.020   1.182  0.00  0.00    +0.027 A 
ATOM     32  C   UNL     1      -3.959  -0.115   0.442  0.00  0.00    -0.044 A 
ATOM     33  C   UNL     1      -4.755  -0.399  -0.683  0.00  0.00    +0.027 A 
BRANCH  28  35
ATOM     34  C   UNL     1      -6.011   0.815  -3.400  0.00  0.00    +0.010 C 
ATOM     35  C   UNL     1      -6.636   0.095  -2.219  0.00  0.00    +0.052 C 
ENDBRANCH  28  35
BRANCH  30  36
ATOM     36  C   UNL     1      -5.659   3.034   1.633  0.00  0.00    +0.052 C 
ATOM     37  C   UNL     1      -6.855   3.723   1.023  0.00  0.00    +0.010 C 
ENDBRANCH  30  36
ENDBRANCH  27  32
ENDBRANCH  26  27
ENDBRANCH   1  26
TORSDOF 8
