REMARK  Name = DB11878_0.pdb
REMARK  12 active torsions:
REMARK  status: ('A' for Active; 'I' for Inactive)
REMARK    1  A    between atoms: _1  and  _2
REMARK    2  A    between atoms: _2  and  _3
REMARK    3  A    between atoms: _5  and  _6
REMARK    4  A    between atoms: _6  and  _7
REMARK    5  A    between atoms: _7  and  _8
REMARK    6  A    between atoms: _8  and  _9
REMARK    7  A    between atoms: _17  and  _21
REMARK    8  A    between atoms: _21  and  _22
REMARK    9  A    between atoms: _27  and  _31
REMARK   10  A    between atoms: _29  and  _30
REMARK   11  A    between atoms: _34  and  _35
REMARK   12  A    between atoms: _35  and  _36
REMARK                            x       y       z     vdW  Elec       q    Type
REMARK                         _______ _______ _______ _____ _____    ______ ____
ROOT
ATOM      1  C   UNL     1      -0.405  -0.537  -0.612  0.00  0.00    +0.120 C 
ATOM      2  O   UNL     1      -0.181  -0.467  -2.023  0.00  0.00    -0.454 OA
ATOM      3  C   UNL     1       1.066  -0.425  -2.490  0.00  0.00    +0.335 C 
ATOM      4  O   UNL     1       1.272  -0.832  -3.626  0.00  0.00    -0.245 OA
ATOM      5  C   UNL     1       2.111   0.099  -1.603  0.00  0.00    +0.032 C 
ATOM      6  C   UNL     1       1.879   0.564  -0.316  0.00  0.00    -0.118 C 
ATOM      7  O   UNL     1       2.615   0.985   0.560  0.00  0.00    -0.876 OA
ATOM      8  C   UNL     1       0.402   0.516   0.140  0.00  0.00    +0.067 C 
ENDROOT
BRANCH   1   9
ATOM      9  C   UNL     1       0.034  -1.934  -0.171  0.00  0.00    +0.033 C 
ATOM     10  C   UNL     1      -0.607  -3.086  -0.936  0.00  0.00    +0.007 C 
ATOM     11  C   UNL     1      -0.106  -4.290  -0.159  0.00  0.00    +0.000 C 
ATOM     12  C   UNL     1       0.096  -3.811   1.279  0.00  0.00    +0.000 C 
ATOM     13  C   UNL     1      -0.210  -2.323   1.278  0.00  0.00    +0.007 C 
ENDBRANCH   1   9
BRANCH   5  14
ATOM     14  C   UNL     1       3.512   0.072  -2.248  0.00  0.00    +0.119 C 
BRANCH  14  15
ATOM     15  C   UNL     1       4.663   0.584  -1.381  0.00  0.00    +0.159 A 
ATOM     16  N   UNL     1       5.136   1.883  -1.385  0.00  0.00    -0.183 NA
ATOM     17  C   UNL     1       6.117   1.859  -0.480  0.00  0.00    +0.307 A 
ATOM     18  N   UNL     1       6.989   2.858  -0.055  0.00  0.00    -0.372 NA
ATOM     19  C   UNL     1       7.919   2.611   0.820  0.00  0.00    +0.094 C 
ATOM     20  C   UNL     1       8.879   3.695   1.291  0.00  0.00    +0.080 C 
ATOM     21  C   UNL     1       8.116   1.254   1.377  0.00  0.00    +0.059 C 
ATOM     22  C   UNL     1       7.282   0.310   0.960  0.00  0.00    +0.047 C 
ATOM     23  C   UNL     1       7.406  -1.105   1.440  0.00  0.00    +0.066 C 
ATOM     24  N   UNL     1       6.250   0.600   0.021  0.00  0.00    -0.191 N 
ATOM     25  N   UNL     1       5.371  -0.234  -0.577  0.00  0.00    -0.147 NA
ENDBRANCH  14  15
ENDBRANCH   5  14
BRANCH   1  26
ATOM     26  C   UNL     1      -1.942  -0.424  -0.393  0.00  0.00    +0.053 C 
BRANCH  26  27
ATOM     27  C   UNL     1      -2.433   0.949  -0.831  0.00  0.00    +0.039 C 
BRANCH  27  32
ATOM     28  C   UNL     1      -6.128   0.961  -1.410  0.00  0.00    +0.042 A 
ATOM     29  N   UNL     1      -6.626   1.420  -0.229  0.00  0.00    -0.257 NA
ATOM     30  C   UNL     1      -5.747   1.723   0.742  0.00  0.00    +0.042 A 
ATOM     31  C   UNL     1      -4.388   1.571   0.584  0.00  0.00    +0.027 A 
ATOM     32  C   UNL     1      -3.889   1.104  -0.632  0.00  0.00    -0.044 A 
ATOM     33  C   UNL     1      -4.782   0.783  -1.643  0.00  0.00    +0.027 A 
BRANCH  28  35
ATOM     34  C   UNL     1      -7.530  -0.821  -2.477  0.00  0.00    +0.010 C 
ATOM     35  C   UNL     1      -7.093   0.629  -2.510  0.00  0.00    +0.052 C 
ENDBRANCH  28  35
BRANCH  30  36
ATOM     36  C   UNL     1      -6.291   2.241   2.051  0.00  0.00    +0.052 C 
ATOM     37  C   UNL     1      -6.596   1.113   3.015  0.00  0.00    +0.010 C 
ENDBRANCH  30  36
ENDBRANCH  27  32
ENDBRANCH  26  27
ENDBRANCH   1  26
TORSDOF 8
