REMARK  Name = DB12964_4.pdb
REMARK  2 active torsions:
REMARK  status: ('A' for Active; 'I' for Inactive)
REMARK    1  A    between atoms: _1  and  _16
REMARK    2  A    between atoms: _16  and  _17
REMARK                            x       y       z     vdW  Elec       q    Type
REMARK                         _______ _______ _______ _____ _____    ______ ____
ROOT
ATOM      1  N   UNL     1       0.636   0.963  -0.350  0.00  0.00    -0.307 N 
ATOM      2  C   UNL     1      -0.727   0.945  -0.481  0.00  0.00    +0.200 A 
ATOM      3  N   UNL     1      -1.565  -0.093  -0.856  0.00  0.00    -0.291 N 
ATOM      4  C   UNL     1      -3.018   0.173  -0.795  0.00  0.00    +0.159 C 
ATOM      5  C   UNL     1      -3.769  -1.020  -0.162  0.00  0.00    +0.148 C 
ATOM      6  N   UNL     1      -3.357  -2.320  -0.764  0.00  0.00    +0.229 N 
ATOM      7  H   UNL     1      -4.185  -2.882  -1.008  0.00  0.00    +0.201 HD
ATOM      8  H   UNL     1      -2.805  -2.821  -0.052  0.00  0.00    +0.201 HD
ATOM      9  C   UNL     1      -2.460  -2.122  -1.947  0.00  0.00    +0.148 C 
ATOM     10  C   UNL     1      -1.191  -1.359  -1.458  0.00  0.00    +0.159 C 
ATOM     11  N   UNL     1      -1.199   2.134  -0.170  0.00  0.00    -0.214 NA
ATOM     12  C   UNL     1      -0.171   2.949   0.158  0.00  0.00    +0.091 A 
ATOM     13  C   UNL     1      -0.172   4.282   0.548  0.00  0.00    +0.030 A 
ATOM     14  C   UNL     1       1.030   4.911   0.815  0.00  0.00    +0.002 A 
ATOM     15  C   UNL     1       2.221   4.204   0.692  0.00  0.00    +0.002 A 
ATOM     16  C   UNL     1       2.220   2.863   0.303  0.00  0.00    +0.028 A 
ATOM     17  C   UNL     1       1.000   2.244   0.040  0.00  0.00    +0.070 A 
ENDROOT
BRANCH   1  18
ATOM     18  C   UNL     1       1.637  -0.046  -0.634  0.00  0.00    +0.160 C 
BRANCH  18  19
ATOM     19  C   UNL     1       1.970  -0.964   0.512  0.00  0.00    -0.028 A 
ATOM     20  C   UNL     1       1.958  -2.333   0.299  0.00  0.00    +0.005 A 
ATOM     21  C   UNL     1       2.361  -3.228   1.299  0.00  0.00    +0.000 A 
ATOM     22  C   UNL     1       2.800  -2.757   2.513  0.00  0.00    +0.000 A 
ATOM     23  C   UNL     1       2.835  -1.398   2.739  0.00  0.00    +0.000 A 
ATOM     24  C   UNL     1       2.423  -0.518   1.748  0.00  0.00    +0.005 A 
ENDBRANCH  18  19
ENDBRANCH   1  18
TORSDOF 2
