REMARK  Name = DB12964_3.pdb
REMARK  2 active torsions:
REMARK  status: ('A' for Active; 'I' for Inactive)
REMARK    1  A    between atoms: _1  and  _16
REMARK    2  A    between atoms: _16  and  _17
REMARK                            x       y       z     vdW  Elec       q    Type
REMARK                         _______ _______ _______ _____ _____    ______ ____
ROOT
ATOM      1  N   UNL     1       0.697   0.882  -0.382  0.00  0.00    -0.307 N 
ATOM      2  C   UNL     1      -0.723   0.866  -0.421  0.00  0.00    +0.200 A 
ATOM      3  N   UNL     1      -1.413  -0.241  -0.651  0.00  0.00    -0.291 N 
ATOM      4  C   UNL     1      -2.198  -0.851   0.446  0.00  0.00    +0.159 C 
ATOM      5  C   UNL     1      -3.638  -1.071   0.020  0.00  0.00    +0.148 C 
ATOM      6  N   UNL     1      -3.741  -1.987  -1.214  0.00  0.00    +0.229 N 
ATOM      7  H   UNL     1      -3.898  -2.927  -0.897  0.00  0.00    +0.201 HD
ATOM      8  H   UNL     1      -4.516  -1.648  -1.772  0.00  0.00    +0.201 HD
ATOM      9  C   UNL     1      -2.480  -1.973  -2.112  0.00  0.00    +0.148 C 
ATOM     10  C   UNL     1      -1.784  -0.602  -2.027  0.00  0.00    +0.159 C 
ATOM     11  N   UNL     1      -1.183   2.060  -0.185  0.00  0.00    -0.214 NA
ATOM     12  C   UNL     1      -0.121   2.900   0.015  0.00  0.00    +0.091 A 
ATOM     13  C   UNL     1      -0.088   4.283   0.304  0.00  0.00    +0.030 A 
ATOM     14  C   UNL     1       1.159   4.905   0.450  0.00  0.00    +0.002 A 
ATOM     15  C   UNL     1       2.321   4.169   0.314  0.00  0.00    +0.002 A 
ATOM     16  C   UNL     1       2.296   2.782   0.026  0.00  0.00    +0.028 A 
ATOM     17  C   UNL     1       1.063   2.187  -0.111  0.00  0.00    +0.070 A 
ENDROOT
BRANCH   1  18
ATOM     18  C   UNL     1       1.633  -0.220  -0.685  0.00  0.00    +0.160 C 
BRANCH  18  19
ATOM     19  C   UNL     1       1.996  -1.024   0.565  0.00  0.00    -0.028 A 
ATOM     20  C   UNL     1       2.991  -0.608   1.469  0.00  0.00    +0.005 A 
ATOM     21  C   UNL     1       3.329  -1.370   2.584  0.00  0.00    +0.000 A 
ATOM     22  C   UNL     1       2.687  -2.587   2.824  0.00  0.00    +0.000 A 
ATOM     23  C   UNL     1       1.696  -3.014   1.936  0.00  0.00    +0.000 A 
ATOM     24  C   UNL     1       1.366  -2.233   0.817  0.00  0.00    +0.005 A 
ENDBRANCH  18  19
ENDBRANCH   1  18
TORSDOF 2
