REMARK  Name = DB12964_2.pdb
REMARK  2 active torsions:
REMARK  status: ('A' for Active; 'I' for Inactive)
REMARK    1  A    between atoms: _1  and  _16
REMARK    2  A    between atoms: _16  and  _17
REMARK                            x       y       z     vdW  Elec       q    Type
REMARK                         _______ _______ _______ _____ _____    ______ ____
ROOT
ATOM      1  N   UNL     1       0.629   0.846  -0.245  0.00  0.00    -0.307 N 
ATOM      2  C   UNL     1      -0.730   0.675  -0.310  0.00  0.00    +0.200 A 
ATOM      3  N   UNL     1      -1.287  -0.516  -0.724  0.00  0.00    -0.291 N 
ATOM      4  C   UNL     1      -1.734  -0.605  -2.129  0.00  0.00    +0.159 C 
ATOM      5  C   UNL     1      -2.781  -1.729  -2.295  0.00  0.00    +0.148 C 
ATOM      6  N   UNL     1      -3.957  -1.477  -1.411  0.00  0.00    +0.229 N 
ATOM      7  H   UNL     1      -4.552  -2.312  -1.400  0.00  0.00    +0.201 HD
ATOM      8  H   UNL     1      -4.535  -0.706  -1.793  0.00  0.00    +0.201 HD
ATOM      9  C   UNL     1      -3.594  -1.116   0.004  0.00  0.00    +0.148 C 
ATOM     10  C   UNL     1      -2.083  -1.264   0.255  0.00  0.00    +0.159 C 
ATOM     11  N   UNL     1      -1.353   1.744   0.113  0.00  0.00    -0.214 NA
ATOM     12  C   UNL     1      -0.400   2.665   0.432  0.00  0.00    +0.091 A 
ATOM     13  C   UNL     1      -0.510   3.973   0.909  0.00  0.00    +0.030 A 
ATOM     14  C   UNL     1       0.649   4.708   1.160  0.00  0.00    +0.002 A 
ATOM     15  C   UNL     1       1.905   4.151   0.928  0.00  0.00    +0.002 A 
ATOM     16  C   UNL     1       2.016   2.855   0.439  0.00  0.00    +0.028 A 
ATOM     17  C   UNL     1       0.861   2.119   0.205  0.00  0.00    +0.070 A 
ENDROOT
BRANCH   1  18
ATOM     18  C   UNL     1       1.624  -0.093  -0.708  0.00  0.00    +0.160 C 
BRANCH  18  19
ATOM     19  C   UNL     1       2.191  -0.951   0.381  0.00  0.00    -0.028 A 
ATOM     20  C   UNL     1       1.599  -2.146   0.770  0.00  0.00    +0.005 A 
ATOM     21  C   UNL     1       2.183  -2.947   1.741  0.00  0.00    +0.000 A 
ATOM     22  C   UNL     1       3.364  -2.568   2.354  0.00  0.00    +0.000 A 
ATOM     23  C   UNL     1       3.956  -1.379   1.978  0.00  0.00    +0.000 A 
ATOM     24  C   UNL     1       3.377  -0.577   1.008  0.00  0.00    +0.005 A 
ENDBRANCH  18  19
ENDBRANCH   1  18
TORSDOF 2
