REMARK  Name = DB12964_1.pdb
REMARK  2 active torsions:
REMARK  status: ('A' for Active; 'I' for Inactive)
REMARK    1  A    between atoms: _1  and  _16
REMARK    2  A    between atoms: _16  and  _17
REMARK                            x       y       z     vdW  Elec       q    Type
REMARK                         _______ _______ _______ _____ _____    ______ ____
ROOT
ATOM      1  N   UNL     1       0.273   0.671   0.642  0.00  0.00    -0.307 N 
ATOM      2  C   UNL     1      -0.811   0.553  -0.202  0.00  0.00    +0.200 A 
ATOM      3  N   UNL     1      -1.748  -0.466  -0.133  0.00  0.00    -0.291 N 
ATOM      4  C   UNL     1      -3.144  -0.016  -0.019  0.00  0.00    +0.159 C 
ATOM      5  C   UNL     1      -3.844  -0.025  -1.397  0.00  0.00    +0.148 C 
ATOM      6  N   UNL     1      -3.708  -1.345  -2.098  0.00  0.00    +0.229 N 
ATOM      7  H   UNL     1      -3.267  -1.187  -3.020  0.00  0.00    +0.201 HD
ATOM      8  H   UNL     1      -4.649  -1.720  -2.260  0.00  0.00    +0.201 HD
ATOM      9  C   UNL     1      -2.917  -2.351  -1.329  0.00  0.00    +0.148 C 
ATOM     10  C   UNL     1      -1.568  -1.760  -0.820  0.00  0.00    +0.159 C 
ATOM     11  N   UNL     1      -0.931   1.650  -0.907  0.00  0.00    -0.214 NA
ATOM     12  C   UNL     1       0.005   2.548  -0.450  0.00  0.00    +0.091 A 
ATOM     13  C   UNL     1       0.241   3.890  -0.780  0.00  0.00    +0.030 A 
ATOM     14  C   UNL     1       1.247   4.591  -0.112  0.00  0.00    +0.002 A 
ATOM     15  C   UNL     1       1.994   3.986   0.880  0.00  0.00    +0.002 A 
ATOM     16  C   UNL     1       1.749   2.661   1.216  0.00  0.00    +0.028 A 
ATOM     17  C   UNL     1       0.762   1.960   0.529  0.00  0.00    +0.070 A 
ENDROOT
BRANCH   1  18
ATOM     18  C   UNL     1       0.666  -0.250   1.683  0.00  0.00    +0.160 C 
BRANCH  18  19
ATOM     19  C   UNL     1       1.924  -1.021   1.389  0.00  0.00    -0.028 A 
ATOM     20  C   UNL     1       3.137  -0.645   1.983  0.00  0.00    +0.005 A 
ATOM     21  C   UNL     1       4.295  -1.372   1.758  0.00  0.00    +0.000 A 
ATOM     22  C   UNL     1       4.272  -2.496   0.942  0.00  0.00    +0.000 A 
ATOM     23  C   UNL     1       3.077  -2.872   0.341  0.00  0.00    +0.000 A 
ATOM     24  C   UNL     1       1.924  -2.140   0.558  0.00  0.00    +0.005 A 
ENDBRANCH  18  19
ENDBRANCH   1  18
TORSDOF 2
