REMARK  Name = DB12964_0.pdb
REMARK  2 active torsions:
REMARK  status: ('A' for Active; 'I' for Inactive)
REMARK    1  A    between atoms: _1  and  _16
REMARK    2  A    between atoms: _16  and  _17
REMARK                            x       y       z     vdW  Elec       q    Type
REMARK                         _______ _______ _______ _____ _____    ______ ____
ROOT
ATOM      1  N   UNL     1       0.618   0.786  -0.351  0.00  0.00    -0.307 N 
ATOM      2  C   UNL     1      -0.746   0.576  -0.278  0.00  0.00    +0.200 A 
ATOM      3  N   UNL     1      -1.337  -0.613  -0.568  0.00  0.00    -0.291 N 
ATOM      4  C   UNL     1      -1.774  -0.917  -1.941  0.00  0.00    +0.159 C 
ATOM      5  C   UNL     1      -3.300  -0.766  -2.135  0.00  0.00    +0.148 C 
ATOM      6  N   UNL     1      -4.050  -0.808  -0.846  0.00  0.00    +0.229 N 
ATOM      7  H   UNL     1      -4.016   0.143  -0.432  0.00  0.00    +0.201 HD
ATOM      8  H   UNL     1      -5.029  -1.025  -1.015  0.00  0.00    +0.201 HD
ATOM      9  C   UNL     1      -3.458  -1.753   0.147  0.00  0.00    +0.148 C 
ATOM     10  C   UNL     1      -2.017  -1.344   0.518  0.00  0.00    +0.159 C 
ATOM     11  N   UNL     1      -1.322   1.673   0.171  0.00  0.00    -0.214 NA
ATOM     12  C   UNL     1      -0.343   2.597   0.385  0.00  0.00    +0.091 A 
ATOM     13  C   UNL     1      -0.422   3.910   0.864  0.00  0.00    +0.030 A 
ATOM     14  C   UNL     1       0.756   4.659   0.987  0.00  0.00    +0.002 A 
ATOM     15  C   UNL     1       1.981   4.111   0.642  0.00  0.00    +0.002 A 
ATOM     16  C   UNL     1       2.055   2.804   0.161  0.00  0.00    +0.028 A 
ATOM     17  C   UNL     1       0.883   2.067   0.048  0.00  0.00    +0.070 A 
ENDROOT
BRANCH   1  18
ATOM     18  C   UNL     1       1.597  -0.157  -0.849  0.00  0.00    +0.160 C 
BRANCH  18  19
ATOM     19  C   UNL     1       2.219  -1.013   0.224  0.00  0.00    -0.028 A 
ATOM     20  C   UNL     1       3.385  -0.604   0.875  0.00  0.00    +0.005 A 
ATOM     21  C   UNL     1       3.984  -1.401   1.846  0.00  0.00    +0.000 A 
ATOM     22  C   UNL     1       3.420  -2.623   2.187  0.00  0.00    +0.000 A 
ATOM     23  C   UNL     1       2.262  -3.041   1.542  0.00  0.00    +0.000 A 
ATOM     24  C   UNL     1       1.672  -2.243   0.571  0.00  0.00    +0.005 A 
ENDBRANCH  18  19
ENDBRANCH   1  18
TORSDOF 2
