2vz6
  PyMOL2.3          3D                             0

 27 30  0  0  0  0  0  0  0  0999 V2000
    6.8000   46.4470   37.3650 C   0  0  0  0  0  0  0  0  0  0  0  0
    6.5490   47.3530   36.3350 C   0  0  0  0  0  0  0  0  0  0  0  0
    7.0010   46.9090   38.6590 C   0  0  0  0  0  0  0  0  0  0  0  0
    6.9340   48.2800   38.9180 C   0  0  0  0  0  0  0  0  0  0  0  0
    6.6860   49.1880   37.9060 C   0  0  0  0  0  0  0  0  0  0  0  0
    6.4840   48.7220   36.6070 C   0  0  0  0  0  0  0  0  0  0  0  0
    7.0720   49.0430   40.0720 C   0  0  0  0  0  0  0  0  0  0  0  0
    6.9060   50.3850   39.7460 C   0  0  0  0  0  0  0  0  0  0  0  0
    7.2500   46.7560   43.0610 C   0  0  0  0  0  0  0  0  0  0  0  0
    8.6050   46.5860   43.7390 C   0  0  0  0  0  0  0  0  0  0  0  0
    8.8490   47.6640   44.7960 C   0  0  0  0  0  0  0  0  0  0  0  0
   10.2790   47.5610   45.3530 C   0  0  0  0  0  0  0  0  0  0  0  0
    6.9720   51.5600   40.4920 C   0  0  0  0  0  0  0  0  0  0  0  0
    7.1950   51.8450   41.8580 C   0  0  0  0  0  0  0  0  0  0  0  0
    6.7850   52.8030   39.8970 C   0  0  0  0  0  0  0  0  0  0  0  0
    7.1200   53.2440   41.9730 C   0  0  0  0  0  0  0  0  0  0  0  0
    7.4820   51.1080   43.0270 C   0  0  0  0  0  0  0  0  0  0  0  0
    7.6570   51.7290   44.2600 C   0  0  0  0  0  0  0  0  0  0  0  0
    7.5810   53.1020   44.3490 C   0  0  0  0  0  0  0  0  0  0  0  0
    6.6670   50.4400   38.4200 N   0  0  0  0  0  0  0  0  0  0  0  0
    7.3320   48.5420   41.3020 N   0  0  0  0  0  0  0  0  0  0  0  0
    6.8390   53.7960   40.7750 N   0  0  0  0  0  0  0  0  0  0  0  0
    7.4260   47.1500   41.6840 O   0  0  0  0  0  0  0  0  0  0  0  0
   10.3340   47.4060   46.7870 O   0  0  0  0  0  0  0  0  0  0  0  0
    7.8500   47.5440   45.8220 O   0  0  0  0  0  0  0  0  0  0  0  0
    6.5310   53.0310   38.6470 O   0  0  0  0  0  0  0  0  0  0  0  0
    7.3140   53.8530   43.2100 C   0  0  0  0  0  0  0  0  0  0  0  0
  1  2  4  0  0  0  0
  2  6  4  0  0  0  0
  1  3  4  0  0  0  0
  3  4  4  0  0  0  0
  4  5  4  0  0  0  0
  5 20  4  0  0  0  0
  5  6  4  0  0  0  0
  4  7  4  0  0  0  0
  7 21  1  0  0  0  0
  7  8  4  0  0  0  0
  8 20  4  0  0  0  0
  9 10  1  0  0  0  0
 10 11  1  0  0  0  0
 11 12  1  0  0  0  0
 11 25  1  0  0  0  0
 12 24  1  0  0  0  0
  8 13  1  0  0  0  0
 13 14  4  0  0  0  0
 14 16  4  0  0  0  0
 14 17  4  0  0  0  0
 13 15  4  0  0  0  0
 15 22  4  0  0  0  0
 16 22  4  0  0  0  0
 17 18  4  0  0  0  0
 18 19  4  0  0  0  0
 19 27  4  0  0  0  0
 21 23  1  0  0  0  0
  9 23  1  0  0  0  0
 15 26  2  0  0  0  0
 16 27  4  0  0  0  0
M  END
$$$$
