
 OpenBabel12271915493D

 27 29  0  0  1  0  0  0  0  0999 V2000
   21.6940  -14.3640   -1.0120 C   0  0  1  0  0  0  0  0  0  0  0  0
   20.9860  -14.4720    0.2430 N   0  0  0  0  0  0  0  0  0  0  0  0
   21.2660  -13.8410    1.0490 H   0  0  0  0  0  0  0  0  0  0  0  0
   19.4990  -14.0480   -0.0420 O   0  0  0  0  0  0  0  0  0  0  0  0
   19.4240  -13.9500   -1.4690 C   0  0  2  0  0  0  0  0  0  0  0  0
   18.5720  -12.7130   -1.7250 C   0  0  1  0  0  0  0  0  0  0  0  0
   17.2120  -13.0610   -2.1990 C   0  0  2  0  0  0  0  0  0  0  0  0
   17.3710  -13.9720   -3.3490 C   0  0  1  0  0  0  0  0  0  0  0  0
   17.7990  -15.3100   -2.7800 C   0  0  2  0  0  0  0  0  0  0  0  0
   18.9570  -15.2670   -1.8890 O   0  0  0  0  0  0  0  0  0  0  0  0
   20.7920  -13.7570   -2.0380 C   0  0  0  0  0  0  0  0  0  0  0  0
   22.9650  -13.6450   -0.7510 C   0  0  0  0  0  0  0  0  0  0  0  0
   22.9280  -12.2880   -0.3820 C   0  0  0  0  0  0  0  0  0  0  0  0
   24.0820  -11.5860   -0.1400 C   0  0  0  0  0  0  0  0  0  0  0  0
   25.3180  -12.2150   -0.2380 C   0  0  0  0  0  0  0  0  0  0  0  0
   26.5980  -11.4870    0.0430 C   0  0  0  0  0  0  0  0  0  0  0  0
   25.3670  -13.5620   -0.5850 C   0  0  0  0  0  0  0  0  0  0  0  0
   24.1970  -14.2730   -0.8380 C   0  0  0  0  0  0  0  0  0  0  0  0
   16.6490  -11.7970   -2.6740 O   0  0  0  0  0  0  0  0  0  0  0  0
   16.0570  -11.4810   -1.9670 H   0  0  0  0  0  0  0  0  0  0  0  0
   18.5010  -11.9260   -0.5000 O   0  0  0  0  0  0  0  0  0  0  0  0
   18.3170  -11.0290   -0.7880 H   0  0  0  0  0  0  0  0  0  0  0  0
   16.1210  -14.2670   -4.0010 O   0  0  0  0  0  0  0  0  0  0  0  0
   15.7420  -13.4190   -4.2560 H   0  0  0  0  0  0  0  0  0  0  0  0
   18.0950  -16.2980   -3.8850 C   0  0  0  0  0  0  0  0  0  0  0  0
   16.8940  -16.8010   -4.5420 O   0  0  0  0  0  0  0  0  0  0  0  0
   16.1550  -16.8240   -3.9080 H   0  0  0  0  0  0  0  0  0  0  0  0
  1 12  1  1  0  0  0
  1  2  1  0  0  0  0
  2  3  1  0  0  0  0
  4  2  1  0  0  0  0
  5 11  1  6  0  0  0
  5  4  1  0  0  0  0
  6  5  1  1  0  0  0
  6 21  1  0  0  0  0
  7 19  1  6  0  0  0
  7  6  1  0  0  0  0
  8 23  1  1  0  0  0
  8  9  1  0  0  0  0
  8  7  1  0  0  0  0
  9 25  1  6  0  0  0
  9 10  1  0  0  0  0
 10  5  1  0  0  0  0
 11  1  1  0  0  0  0
 12 13  1  0  0  0  0
 13 14  2  0  0  0  0
 15 14  1  0  0  0  0
 15 16  1  0  0  0  0
 17 15  2  0  0  0  0
 18 12  2  0  0  0  0
 18 17  1  0  0  0  0
 19 20  1  0  0  0  0
 22 21  1  0  0  0  0
 24 23  1  0  0  0  0
 26 27  1  0  0  0  0
 26 25  1  0  0  0  0
M  END
>  <minimizedAffinity>
-8.5831728

$$$$

 OpenBabel12271915493D

 27 29  0  0  1  0  0  0  0  0999 V2000
   19.7020  -13.5930   -1.3800 C   0  0  1  0  0  0  0  0  0  0  0  0
   19.8280  -14.1350   -0.0470 N   0  0  0  0  0  0  0  0  0  0  0  0
   19.5650  -15.1490    0.1240 H   0  0  0  0  0  0  0  0  0  0  0  0
   21.3590  -14.0990    0.3100 O   0  0  0  0  0  0  0  0  0  0  0  0
   21.9520  -13.3370   -0.7480 C   0  0  2  0  0  0  0  0  0  0  0  0
   23.2590  -14.0590   -1.0550 C   0  0  1  0  0  0  0  0  0  0  0  0
   24.4380  -13.3120   -0.5580 C   0  0  2  0  0  0  0  0  0  0  0  0
   24.3340  -11.9370   -1.0810 C   0  0  1  0  0  0  0  0  0  0  0  0
   23.2410  -11.2560   -0.2840 C   0  0  2  0  0  0  0  0  0  0  0  0
   21.9670  -11.9730   -0.2340 O   0  0  0  0  0  0  0  0  0  0  0  0
   21.0620  -13.3550   -1.9490 C   0  0  0  0  0  0  0  0  0  0  0  0
   18.8190  -14.5010   -2.1530 C   0  0  0  0  0  0  0  0  0  0  0  0
   19.3830  -15.5790   -2.8580 C   0  0  0  0  0  0  0  0  0  0  0  0
   18.6020  -16.4350   -3.5920 C   0  0  0  0  0  0  0  0  0  0  0  0
   17.2230  -16.2610   -3.6360 C   0  0  0  0  0  0  0  0  0  0  0  0
   16.3350  -17.1920   -4.4060 C   0  0  0  0  0  0  0  0  0  0  0  0
   16.6500  -15.2100   -2.9270 C   0  0  0  0  0  0  0  0  0  0  0  0
   17.4440  -14.3350   -2.1900 C   0  0  0  0  0  0  0  0  0  0  0  0
   25.5850  -13.9700   -1.1860 O   0  0  0  0  0  0  0  0  0  0  0  0
   25.9720  -14.5490   -0.5040 H   0  0  0  0  0  0  0  0  0  0  0  0
   23.2130  -15.3930   -0.4660 O   0  0  0  0  0  0  0  0  0  0  0  0
   23.8260  -15.9170   -0.9840 H   0  0  0  0  0  0  0  0  0  0  0  0
   25.5030  -11.1440   -0.7960 O   0  0  0  0  0  0  0  0  0  0  0  0
   26.2520  -11.6210   -1.1690 H   0  0  0  0  0  0  0  0  0  0  0  0
   22.9740   -9.8630   -0.8080 C   0  0  0  0  0  0  0  0  0  0  0  0
   23.7890   -8.8410   -0.1620 O   0  0  0  0  0  0  0  0  0  0  0  0
   23.9810   -9.1030    0.7570 H   0  0  0  0  0  0  0  0  0  0  0  0
  1 12  1  6  0  0  0
  1  2  1  0  0  0  0
  2  3  1  0  0  0  0
  2  4  1  0  0  0  0
  5 11  1  6  0  0  0
  5 10  1  0  0  0  0
  5  4  1  0  0  0  0
  6  5  1  1  0  0  0
  6  7  1  0  0  0  0
  6 21  1  0  0  0  0
  7 19  1  6  0  0  0
  8 23  1  1  0  0  0
  8  7  1  0  0  0  0
  8  9  1  0  0  0  0
  9 25  1  6  0  0  0
  9 10  1  0  0  0  0
 11  1  1  0  0  0  0
 13 12  2  0  0  0  0
 14 13  1  0  0  0  0
 15 14  2  0  0  0  0
 15 17  1  0  0  0  0
 16 15  1  0  0  0  0
 17 18  2  0  0  0  0
 18 12  1  0  0  0  0
 19 20  1  0  0  0  0
 22 21  1  0  0  0  0
 24 23  1  0  0  0  0
 25 26  1  0  0  0  0
 26 27  1  0  0  0  0
M  END
>  <minimizedAffinity>
-8.55443668

$$$$

 OpenBabel12271915493D

 27 29  0  0  1  0  0  0  0  0999 V2000
   19.1740  -13.1680   -1.6750 C   0  0  1  0  0  0  0  0  0  0  0  0
   19.9620  -13.6950   -0.5850 N   0  0  0  0  0  0  0  0  0  0  0  0
   20.2600  -14.7140   -0.6100 H   0  0  0  0  0  0  0  0  0  0  0  0
   21.3320  -12.9230   -0.6070 O   0  0  0  0  0  0  0  0  0  0  0  0
   21.1310  -11.8700   -1.5570 C   0  0  2  0  0  0  0  0  0  0  0  0
   22.4410  -11.7990   -2.3340 C   0  0  1  0  0  0  0  0  0  0  0  0
   23.2430  -10.6090   -1.9670 C   0  0  2  0  0  0  0  0  0  0  0  0
   22.3620   -9.4330   -2.0970 C   0  0  1  0  0  0  0  0  0  0  0  0
   21.4100   -9.4770   -0.9190 C   0  0  2  0  0  0  0  0  0  0  0  0
   20.6950  -10.7410   -0.7430 O   0  0  0  0  0  0  0  0  0  0  0  0
   20.0070  -12.2220   -2.4760 C   0  0  0  0  0  0  0  0  0  0  0  0
   18.5990  -14.3200   -2.4120 C   0  0  0  0  0  0  0  0  0  0  0  0
   19.4430  -15.3640   -2.8290 C   0  0  0  0  0  0  0  0  0  0  0  0
   18.9520  -16.4420   -3.5200 C   0  0  0  0  0  0  0  0  0  0  0  0
   17.5940  -16.5300   -3.8080 C   0  0  0  0  0  0  0  0  0  0  0  0
   17.0170  -17.7050   -4.5390 C   0  0  0  0  0  0  0  0  0  0  0  0
   16.7450  -15.5120   -3.3850 C   0  0  0  0  0  0  0  0  0  0  0  0
   17.2450  -14.4140   -2.6910 C   0  0  0  0  0  0  0  0  0  0  0  0
   24.2850  -10.5330   -2.9920 O   0  0  0  0  0  0  0  0  0  0  0  0
   25.0920  -10.8990   -2.5850 H   0  0  0  0  0  0  0  0  0  0  0  0
   23.1990  -13.0210   -2.0960 O   0  0  0  0  0  0  0  0  0  0  0  0
   23.7750  -13.1120   -2.8580 H   0  0  0  0  0  0  0  0  0  0  0  0
   23.0660   -8.1890   -1.9150 O   0  0  0  0  0  0  0  0  0  0  0  0
   23.7800   -8.1840   -2.5610 H   0  0  0  0  0  0  0  0  0  0  0  0
   20.3860   -8.3690   -1.0080 C   0  0  0  0  0  0  0  0  0  0  0  0
   20.8840   -7.0880   -0.5200 O   0  0  0  0  0  0  0  0  0  0  0  0
   21.5400   -7.2350    0.1860 H   0  0  0  0  0  0  0  0  0  0  0  0
  1 12  1  6  0  0  0
  1  2  1  0  0  0  0
  3  2  1  0  0  0  0
  4  2  1  0  0  0  0
  5 11  1  6  0  0  0
  5 10  1  0  0  0  0
  5  4  1  0  0  0  0
  6 21  1  0  0  0  0
  6  7  1  0  0  0  0
  6  5  1  1  0  0  0
  7 19  1  6  0  0  0
  8  7  1  0  0  0  0
  8 23  1  1  0  0  0
  8  9  1  0  0  0  0
  9 25  1  6  0  0  0
  9 10  1  0  0  0  0
 11  1  1  0  0  0  0
 13 12  2  0  0  0  0
 14 13  1  0  0  0  0
 15 14  2  0  0  0  0
 15 17  1  0  0  0  0
 16 15  1  0  0  0  0
 17 18  2  0  0  0  0
 18 12  1  0  0  0  0
 19 20  1  0  0  0  0
 22 21  1  0  0  0  0
 24 23  1  0  0  0  0
 25 26  1  0  0  0  0
 26 27  1  0  0  0  0
M  END
>  <minimizedAffinity>
-7.759058

$$$$

 OpenBabel12271915493D

 27 29  0  0  1  0  0  0  0  0999 V2000
   20.4570  -13.0140   -1.2520 C   0  0  1  0  0  0  0  0  0  0  0  0
   20.9150  -13.6400   -0.0330 N   0  0  0  0  0  0  0  0  0  0  0  0
   20.9330  -14.7000    0.0270 H   0  0  0  0  0  0  0  0  0  0  0  0
   22.4290  -13.2490    0.1320 O   0  0  0  0  0  0  0  0  0  0  0  0
   22.6510  -12.2550   -0.8770 C   0  0  2  0  0  0  0  0  0  0  0  0
   24.0290  -12.5820   -1.4410 C   0  0  1  0  0  0  0  0  0  0  0  0
   25.0570  -11.6120   -0.9970 C   0  0  2  0  0  0  0  0  0  0  0  0
   24.5460  -10.2630   -1.3070 C   0  0  1  0  0  0  0  0  0  0  0  0
   23.4590   -9.9720   -0.2930 C   0  0  2  0  0  0  0  0  0  0  0  0
   22.4190  -10.9930   -0.1840 O   0  0  0  0  0  0  0  0  0  0  0  0
   21.6160  -12.3770   -1.9470 C   0  0  0  0  0  0  0  0  0  0  0  0
   19.7080  -14.0340   -2.0270 C   0  0  0  0  0  0  0  0  0  0  0  0
   18.5120  -13.6710   -2.6720 C   0  0  0  0  0  0  0  0  0  0  0  0
   17.7870  -14.5860   -3.3910 C   0  0  0  0  0  0  0  0  0  0  0  0
   18.2350  -15.8970   -3.5110 C   0  0  0  0  0  0  0  0  0  0  0  0
   17.4820  -16.9180   -4.3100 C   0  0  0  0  0  0  0  0  0  0  0  0
   19.4270  -16.2640   -2.8930 C   0  0  0  0  0  0  0  0  0  0  0  0
   20.1590  -15.3380   -2.1560 C   0  0  0  0  0  0  0  0  0  0  0  0
   26.2160  -11.8850   -1.8480 O   0  0  0  0  0  0  0  0  0  0  0  0
   26.8310  -12.4130   -1.3070 H   0  0  0  0  0  0  0  0  0  0  0  0
   24.3950  -13.9360   -1.0410 O   0  0  0  0  0  0  0  0  0  0  0  0
   25.0280  -14.2280   -1.7000 H   0  0  0  0  0  0  0  0  0  0  0  0
   25.5210   -9.2310   -1.0640 O   0  0  0  0  0  0  0  0  0  0  0  0
   26.2950   -9.4590   -1.5900 H   0  0  0  0  0  0  0  0  0  0  0  0
   22.7890   -8.6480   -0.5820 C   0  0  0  0  0  0  0  0  0  0  0  0
   22.8720   -8.2580   -1.9850 O   0  0  0  0  0  0  0  0  0  0  0  0
   23.6940   -8.6050   -2.3770 H   0  0  0  0  0  0  0  0  0  0  0  0
  1 12  1  6  0  0  0
  1  2  1  0  0  0  0
  2  3  1  0  0  0  0
  2  4  1  0  0  0  0
  5 11  1  6  0  0  0
  5 10  1  0  0  0  0
  5  4  1  0  0  0  0
  6 21  1  0  0  0  0
  6  7  1  0  0  0  0
  6  5  1  1  0  0  0
  7 19  1  6  0  0  0
  8 23  1  1  0  0  0
  8  7  1  0  0  0  0
  8  9  1  0  0  0  0
  9 25  1  6  0  0  0
  9 10  1  0  0  0  0
 11  1  1  0  0  0  0
 13 12  2  0  0  0  0
 14 13  1  0  0  0  0
 15 14  2  0  0  0  0
 15 17  1  0  0  0  0
 16 15  1  0  0  0  0
 17 18  2  0  0  0  0
 18 12  1  0  0  0  0
 19 20  1  0  0  0  0
 22 21  1  0  0  0  0
 24 23  1  0  0  0  0
 26 25  1  0  0  0  0
 27 26  1  0  0  0  0
M  END
>  <minimizedAffinity>
-7.66427517

$$$$

 OpenBabel12271915493D

 27 29  0  0  1  0  0  0  0  0999 V2000
   20.2380  -13.1230   -3.2970 C   0  0  1  0  0  0  0  0  0  0  0  0
   20.0480  -12.0980   -4.2970 N   0  0  0  0  0  0  0  0  0  0  0  0
   19.0920  -11.9830   -4.7430 H   0  0  0  0  0  0  0  0  0  0  0  0
   20.2730  -10.7190   -3.5750 O   0  0  0  0  0  0  0  0  0  0  0  0
   20.7900  -11.0720   -2.2870 C   0  0  2  0  0  0  0  0  0  0  0  0
   20.1040  -10.1130   -1.3210 C   0  0  1  0  0  0  0  0  0  0  0  0
   21.0270   -9.0650   -0.8270 C   0  0  2  0  0  0  0  0  0  0  0  0
   22.2230   -9.7510   -0.3000 C   0  0  1  0  0  0  0  0  0  0  0  0
   23.0040  -10.2380   -1.5040 C   0  0  2  0  0  0  0  0  0  0  0  0
   22.2370  -11.0290   -2.4650 O   0  0  0  0  0  0  0  0  0  0  0  0
   20.4200  -12.4830   -1.9600 C   0  0  0  0  0  0  0  0  0  0  0  0
   19.1120  -14.0810   -3.4160 C   0  0  0  0  0  0  0  0  0  0  0  0
   19.3810  -15.4600   -3.4850 C   0  0  0  0  0  0  0  0  0  0  0  0
   18.3680  -16.3770   -3.6040 C   0  0  0  0  0  0  0  0  0  0  0  0
   17.0430  -15.9560   -3.6400 C   0  0  0  0  0  0  0  0  0  0  0  0
   15.9090  -16.9310   -3.7450 C   0  0  0  0  0  0  0  0  0  0  0  0
   16.7620  -14.5960   -3.5550 C   0  0  0  0  0  0  0  0  0  0  0  0
   17.7900  -13.6640   -3.4420 C   0  0  0  0  0  0  0  0  0  0  0  0
   20.3140   -8.4380    0.2870 O   0  0  0  0  0  0  0  0  0  0  0  0
   19.9460   -7.6050   -0.0620 H   0  0  0  0  0  0  0  0  0  0  0  0
   18.9560   -9.5110   -1.9880 O   0  0  0  0  0  0  0  0  0  0  0  0
   18.3630   -9.2510   -1.2800 H   0  0  0  0  0  0  0  0  0  0  0  0
   23.1370   -8.8490    0.3530 O   0  0  0  0  0  0  0  0  0  0  0  0
   22.6340   -8.4080    1.0460 H   0  0  0  0  0  0  0  0  0  0  0  0
   24.2040  -11.0520   -1.0780 C   0  0  0  0  0  0  0  0  0  0  0  0
   24.0780  -11.5980    0.2690 O   0  0  0  0  0  0  0  0  0  0  0  0
   23.5410  -11.0000    0.8200 H   0  0  0  0  0  0  0  0  0  0  0  0
  1 12  1  1  0  0  0
  1 11  1  0  0  0  0
  2  4  1  0  0  0  0
  2  1  1  0  0  0  0
  3  2  1  0  0  0  0
  4  5  1  0  0  0  0
  5 11  1  1  0  0  0
  6  5  1  6  0  0  0
  6  7  1  0  0  0  0
  7  8  1  0  0  0  0
  7 19  1  1  0  0  0
  8 23  1  6  0  0  0
  9 25  1  1  0  0  0
  9  8  1  0  0  0  0
 10  5  1  0  0  0  0
 10  9  1  0  0  0  0
 13 12  2  0  0  0  0
 14 13  1  0  0  0  0
 15 14  2  0  0  0  0
 15 17  1  0  0  0  0
 16 15  1  0  0  0  0
 17 18  2  0  0  0  0
 18 12  1  0  0  0  0
 20 19  1  0  0  0  0
 21  6  1  0  0  0  0
 21 22  1  0  0  0  0
 23 24  1  0  0  0  0
 25 26  1  0  0  0  0
 26 27  1  0  0  0  0
M  END
>  <minimizedAffinity>
-7.43617535

$$$$

 OpenBabel12271915493D

 27 29  0  0  1  0  0  0  0  0999 V2000
   21.9120  -11.9040   -2.3300 C   0  0  1  0  0  0  0  0  0  0  0  0
   21.5940  -11.4070   -1.0110 N   0  0  0  0  0  0  0  0  0  0  0  0
   21.0540  -12.0300   -0.3420 H   0  0  0  0  0  0  0  0  0  0  0  0
   22.9640  -11.1900   -0.2700 O   0  0  0  0  0  0  0  0  0  0  0  0
   23.9520  -11.3640   -1.2920 C   0  0  2  0  0  0  0  0  0  0  0  0
   25.0710  -12.1460   -0.6150 C   0  0  1  0  0  0  0  0  0  0  0  0
   26.2560  -11.3000   -0.3400 C   0  0  2  0  0  0  0  0  0  0  0  0
   26.6200  -10.6360   -1.6060 C   0  0  1  0  0  0  0  0  0  0  0  0
   25.5800   -9.5590   -1.8410 C   0  0  2  0  0  0  0  0  0  0  0  0
   24.1910  -10.0110   -1.7830 O   0  0  0  0  0  0  0  0  0  0  0  0
   23.3820  -12.1580   -2.4220 C   0  0  0  0  0  0  0  0  0  0  0  0
   21.0290  -13.0650   -2.5980 C   0  0  0  0  0  0  0  0  0  0  0  0
   19.8970  -12.8980   -3.4150 C   0  0  0  0  0  0  0  0  0  0  0  0
   19.0510  -13.9450   -3.6800 C   0  0  0  0  0  0  0  0  0  0  0  0
   19.3120  -15.2060   -3.1560 C   0  0  0  0  0  0  0  0  0  0  0  0
   18.4240  -16.3800   -3.4440 C   0  0  0  0  0  0  0  0  0  0  0  0
   20.4390  -15.3890   -2.3610 C   0  0  0  0  0  0  0  0  0  0  0  0
   21.2930  -14.3250   -2.0850 C   0  0  0  0  0  0  0  0  0  0  0  0
   27.3130  -12.2460    0.0170 O   0  0  0  0  0  0  0  0  0  0  0  0
   27.3780  -12.2260    0.9900 H   0  0  0  0  0  0  0  0  0  0  0  0
   24.5610  -12.7290    0.6210 O   0  0  0  0  0  0  0  0  0  0  0  0
   25.1250  -13.4860    0.7920 H   0  0  0  0  0  0  0  0  0  0  0  0
   27.8540   -9.8990   -1.5120 O   0  0  0  0  0  0  0  0  0  0  0  0
   28.5240  -10.5270   -1.2230 H   0  0  0  0  0  0  0  0  0  0  0  0
   25.7960   -8.8790   -3.1740 C   0  0  0  0  0  0  0  0  0  0  0  0
   26.7100   -7.7450   -3.0970 O   0  0  0  0  0  0  0  0  0  0  0  0
   26.6430   -7.3250   -2.2210 H   0  0  0  0  0  0  0  0  0  0  0  0
  1 12  1  1  0  0  0
  1  2  1  0  0  0  0
  2  3  1  0  0  0  0
  2  4  1  0  0  0  0
  5 11  1  6  0  0  0
  5  4  1  0  0  0  0
  6  5  1  1  0  0  0
  6  7  1  0  0  0  0
  6 21  1  0  0  0  0
  7 19  1  6  0  0  0
  8 23  1  1  0  0  0
  8  7  1  0  0  0  0
  9 25  1  6  0  0  0
  9 10  1  0  0  0  0
  9  8  1  0  0  0  0
 10  5  1  0  0  0  0
 11  1  1  0  0  0  0
 12 18  2  0  0  0  0
 13 12  1  0  0  0  0
 14 13  2  0  0  0  0
 14 15  1  0  0  0  0
 15 17  2  0  0  0  0
 16 15  1  0  0  0  0
 17 18  1  0  0  0  0
 19 20  1  0  0  0  0
 21 22  1  0  0  0  0
 23 24  1  0  0  0  0
 25 26  1  0  0  0  0
 26 27  1  0  0  0  0
M  END
>  <minimizedAffinity>
-7.26633072

$$$$

 OpenBabel12271915493D

 27 29  0  0  1  0  0  0  0  0999 V2000
   23.0420  -11.8080   -0.3190 C   0  0  1  0  0  0  0  0  0  0  0  0
   22.3700  -10.5370   -0.1800 N   0  0  0  0  0  0  0  0  0  0  0  0
   22.9320   -9.6430   -0.2810 H   0  0  0  0  0  0  0  0  0  0  0  0
   21.3380  -10.4430   -1.3640 O   0  0  0  0  0  0  0  0  0  0  0  0
   21.3440  -11.7530   -1.9450 C   0  0  2  0  0  0  0  0  0  0  0  0
   21.2820  -11.5060   -3.4480 C   0  0  1  0  0  0  0  0  0  0  0  0
   19.9510  -11.8300   -4.0110 C   0  0  2  0  0  0  0  0  0  0  0  0
   19.6160  -13.2000   -3.5780 C   0  0  1  0  0  0  0  0  0  0  0  0
   19.2610  -13.1100   -2.1070 C   0  0  2  0  0  0  0  0  0  0  0  0
   20.2550  -12.4450   -1.2660 O   0  0  0  0  0  0  0  0  0  0  0  0
   22.6130  -12.4600   -1.5930 C   0  0  0  0  0  0  0  0  0  0  0  0
   24.4980  -11.5660   -0.1650 C   0  0  0  0  0  0  0  0  0  0  0  0
   24.9870  -10.2480   -0.2100 C   0  0  0  0  0  0  0  0  0  0  0  0
   26.3270   -9.9840   -0.0810 C   0  0  0  0  0  0  0  0  0  0  0  0
   27.2310  -11.0220    0.1170 C   0  0  0  0  0  0  0  0  0  0  0  0
   28.6990  -10.7680    0.2880 C   0  0  0  0  0  0  0  0  0  0  0  0
   26.7570  -12.3290    0.1820 C   0  0  0  0  0  0  0  0  0  0  0  0
   25.3980  -12.5990    0.0430 C   0  0  0  0  0  0  0  0  0  0  0  0
   20.1520  -11.8310   -5.4610 O   0  0  0  0  0  0  0  0  0  0  0  0
   19.8090  -10.9770   -5.7820 H   0  0  0  0  0  0  0  0  0  0  0  0
   21.6260  -10.1140   -3.7130 O   0  0  0  0  0  0  0  0  0  0  0  0
   21.9490  -10.1040   -4.6160 H   0  0  0  0  0  0  0  0  0  0  0  0
   18.4090  -13.6960   -4.1870 O   0  0  0  0  0  0  0  0  0  0  0  0
   18.5410  -13.6360   -5.1380 H   0  0  0  0  0  0  0  0  0  0  0  0
   19.0010  -14.4820   -1.5280 C   0  0  0  0  0  0  0  0  0  0  0  0
   19.6970  -15.5470   -2.2400 O   0  0  0  0  0  0  0  0  0  0  0  0
   19.7940  -15.3090   -3.1800 H   0  0  0  0  0  0  0  0  0  0  0  0
  1  2  1  0  0  0  0
  1 12  1  6  0  0  0
  3  2  1  0  0  0  0
  4  2  1  0  0  0  0
  5 11  1  1  0  0  0
  5  4  1  0  0  0  0
  5 10  1  0  0  0  0
  6  5  1  1  0  0  0
  7 19  1  6  0  0  0
  7  8  1  0  0  0  0
  7  6  1  0  0  0  0
  8 23  1  6  0  0  0
  8  9  1  0  0  0  0
  9 25  1  1  0  0  0
  9 10  1  0  0  0  0
 11  1  1  0  0  0  0
 12 18  1  0  0  0  0
 13 12  2  0  0  0  0
 13 14  1  0  0  0  0
 14 15  2  0  0  0  0
 15 17  1  0  0  0  0
 15 16  1  0  0  0  0
 18 17  2  0  0  0  0
 20 19  1  0  0  0  0
 21  6  1  0  0  0  0
 22 21  1  0  0  0  0
 24 23  1  0  0  0  0
 26 25  1  0  0  0  0
 27 26  1  0  0  0  0
M  END
>  <minimizedAffinity>
-7.11656332

$$$$

 OpenBabel12271915493D

 27 29  0  0  1  0  0  0  0  0999 V2000
   23.7270  -10.8160   -1.5330 C   0  0  1  0  0  0  0  0  0  0  0  0
   23.6590  -11.7270   -2.6530 N   0  0  0  0  0  0  0  0  0  0  0  0
   24.3630  -12.5180   -2.7170 H   0  0  0  0  0  0  0  0  0  0  0  0
   22.2840  -12.4810   -2.5350 O   0  0  0  0  0  0  0  0  0  0  0  0
   21.5850  -11.7850   -1.4960 C   0  0  2  0  0  0  0  0  0  0  0  0
   20.9000  -12.8840   -0.6930 C   0  0  1  0  0  0  0  0  0  0  0  0
   19.4390  -12.9230   -0.9340 C   0  0  2  0  0  0  0  0  0  0  0  0
   18.9240  -11.5580   -0.7120 C   0  0  1  0  0  0  0  0  0  0  0  0
   19.3630  -10.7340   -1.9050 C   0  0  2  0  0  0  0  0  0  0  0  0
   20.7920  -10.7900   -2.2100 O   0  0  0  0  0  0  0  0  0  0  0  0
   22.5580  -11.0490   -0.6330 C   0  0  0  0  0  0  0  0  0  0  0  0
   25.0680  -10.9630   -0.9150 C   0  0  0  0  0  0  0  0  0  0  0  0
   25.4870  -12.2280   -0.4670 C   0  0  0  0  0  0  0  0  0  0  0  0
   26.7160  -12.4030    0.1180 C   0  0  0  0  0  0  0  0  0  0  0  0
   27.5840  -11.3270    0.2600 C   0  0  0  0  0  0  0  0  0  0  0  0
   28.9440  -11.4860    0.8710 C   0  0  0  0  0  0  0  0  0  0  0  0
   27.1880  -10.0730   -0.1970 C   0  0  0  0  0  0  0  0  0  0  0  0
   25.9380   -9.8930   -0.7820 C   0  0  0  0  0  0  0  0  0  0  0  0
   18.9120  -13.8010    0.1120 O   0  0  0  0  0  0  0  0  0  0  0  0
   18.7580  -14.6650   -0.3120 H   0  0  0  0  0  0  0  0  0  0  0  0
   21.5080  -14.1660   -1.0290 O   0  0  0  0  0  0  0  0  0  0  0  0
   21.3460  -14.7280   -0.2690 H   0  0  0  0  0  0  0  0  0  0  0  0
   17.4860  -11.4900   -0.7660 O   0  0  0  0  0  0  0  0  0  0  0  0
   17.1610  -12.1150   -0.1090 H   0  0  0  0  0  0  0  0  0  0  0  0
   18.9780   -9.2820   -1.7330 C   0  0  0  0  0  0  0  0  0  0  0  0
   18.9190   -8.8670   -0.3360 O   0  0  0  0  0  0  0  0  0  0  0  0
   18.6560   -9.6210    0.2230 H   0  0  0  0  0  0  0  0  0  0  0  0
  1 12  1  1  0  0  0
  1 11  1  0  0  0  0
  2  4  1  0  0  0  0
  2  1  1  0  0  0  0
  3  2  1  0  0  0  0
  4  5  1  0  0  0  0
  5 11  1  1  0  0  0
  6  5  1  6  0  0  0
  7  8  1  0  0  0  0
  7  6  1  0  0  0  0
  7 19  1  1  0  0  0
  8 23  1  6  0  0  0
  9 25  1  1  0  0  0
  9  8  1  0  0  0  0
 10  9  1  0  0  0  0
 10  5  1  0  0  0  0
 12 18  2  0  0  0  0
 12 13  1  0  0  0  0
 13 14  2  0  0  0  0
 14 15  1  0  0  0  0
 15 16  1  0  0  0  0
 17 15  2  0  0  0  0
 18 17  1  0  0  0  0
 20 19  1  0  0  0  0
 21  6  1  0  0  0  0
 21 22  1  0  0  0  0
 23 24  1  0  0  0  0
 25 26  1  0  0  0  0
 26 27  1  0  0  0  0
M  END
>  <minimizedAffinity>
-6.72883701

$$$$

 OpenBabel12271915493D

 27 29  0  0  1  0  0  0  0  0999 V2000
   21.8220   -9.8260   -2.4960 C   0  0  1  0  0  0  0  0  0  0  0  0
   20.9520  -10.1720   -1.3960 N   0  0  0  0  0  0  0  0  0  0  0  0
   19.9300  -10.3790   -1.5920 H   0  0  0  0  0  0  0  0  0  0  0  0
   21.4850  -11.5310   -0.8110 O   0  0  0  0  0  0  0  0  0  0  0  0
   22.7390  -11.7350   -1.4720 C   0  0  2  0  0  0  0  0  0  0  0  0
   22.7720  -13.2270   -1.7810 C   0  0  1  0  0  0  0  0  0  0  0  0
   23.7120  -13.9570   -0.8990 C   0  0  2  0  0  0  0  0  0  0  0  0
   25.0120  -13.2630   -0.9760 C   0  0  1  0  0  0  0  0  0  0  0  0
   24.8600  -11.9790   -0.1870 C   0  0  2  0  0  0  0  0  0  0  0  0
   23.7170  -11.1480   -0.5630 O   0  0  0  0  0  0  0  0  0  0  0  0
   22.7790  -10.9470   -2.7420 C   0  0  0  0  0  0  0  0  0  0  0  0
   20.9650   -9.4330   -3.6410 C   0  0  0  0  0  0  0  0  0  0  0  0
   21.2560   -9.9300   -4.9240 C   0  0  0  0  0  0  0  0  0  0  0  0
   20.4920   -9.5840   -6.0100 C   0  0  0  0  0  0  0  0  0  0  0  0
   19.3960   -8.7430   -5.8560 C   0  0  0  0  0  0  0  0  0  0  0  0
   18.5240   -8.3630   -7.0150 C   0  0  0  0  0  0  0  0  0  0  0  0
   19.0870   -8.2590   -4.5880 C   0  0  0  0  0  0  0  0  0  0  0  0
   19.8660   -8.6030   -3.4870 C   0  0  0  0  0  0  0  0  0  0  0  0
   23.8470  -15.2790   -1.5130 O   0  0  0  0  0  0  0  0  0  0  0  0
   23.2780  -15.8770   -0.9940 H   0  0  0  0  0  0  0  0  0  0  0  0
   21.4240  -13.7670   -1.6520 O   0  0  0  0  0  0  0  0  0  0  0  0
   21.4140  -14.5500   -2.2050 H   0  0  0  0  0  0  0  0  0  0  0  0
   26.0590  -13.9650   -0.2800 O   0  0  0  0  0  0  0  0  0  0  0  0
   26.0930  -14.8490   -0.6610 H   0  0  0  0  0  0  0  0  0  0  0  0
   26.1070  -11.1310   -0.2860 C   0  0  0  0  0  0  0  0  0  0  0  0
   26.8230  -11.3090   -1.5450 O   0  0  0  0  0  0  0  0  0  0  0  0
   26.6960  -12.2180   -1.8720 H   0  0  0  0  0  0  0  0  0  0  0  0
  1 12  1  6  0  0  0
  1  2  1  0  0  0  0
  2  4  1  0  0  0  0
  3  2  1  0  0  0  0
  5 11  1  6  0  0  0
  5  4  1  0  0  0  0
  5 10  1  0  0  0  0
  6 21  1  0  0  0  0
  6  5  1  1  0  0  0
  6  7  1  0  0  0  0
  7 19  1  6  0  0  0
  8  7  1  0  0  0  0
  8 23  1  1  0  0  0
  8  9  1  0  0  0  0
  9 25  1  6  0  0  0
 10  9  1  0  0  0  0
 11  1  1  0  0  0  0
 12 18  1  0  0  0  0
 13 12  2  0  0  0  0
 14 15  2  0  0  0  0
 14 13  1  0  0  0  0
 15 17  1  0  0  0  0
 16 15  1  0  0  0  0
 17 18  2  0  0  0  0
 19 20  1  0  0  0  0
 22 21  1  0  0  0  0
 24 23  1  0  0  0  0
 26 25  1  0  0  0  0
 27 26  1  0  0  0  0
M  END
>  <minimizedAffinity>
-6.65131617

$$$$
