
 OpenBabel12271915473D

 24 27  0  0  0  0  0  0  0  0999 V2000
   19.7200  -12.7310   -0.9380 N   0  0  0  0  0  0  0  0  0  0  0  0
   19.3380  -11.4440   -1.2530 C   0  0  0  0  0  0  0  0  0  0  0  0
   18.0320  -10.9820   -1.2000 N   0  0  0  0  0  0  0  0  0  0  0  0
   17.8350   -9.7780   -0.3770 C   0  0  0  0  0  0  0  0  0  0  0  0
   17.8140   -8.5050   -1.2520 C   0  0  0  0  0  0  0  0  0  0  0  0
   16.8360   -8.6070   -2.3850 N   0  0  0  0  0  0  0  0  0  0  0  0
   17.3420   -8.4560   -3.2750 H   0  0  0  0  0  0  0  0  0  0  0  0
   16.1470   -7.8530   -2.2830 H   0  0  0  0  0  0  0  0  0  0  0  0
   16.1130   -9.9120   -2.4350 C   0  0  0  0  0  0  0  0  0  0  0  0
   17.0920  -11.1200   -2.3300 C   0  0  0  0  0  0  0  0  0  0  0  0
   20.4040  -10.6960   -1.3860 N   0  0  0  0  0  0  0  0  0  0  0  0
   21.4970  -11.4590   -1.0440 C   0  0  0  0  0  0  0  0  0  0  0  0
   22.8530  -11.1290   -0.9140 C   0  0  0  0  0  0  0  0  0  0  0  0
   23.7580  -12.1080   -0.4970 C   0  0  0  0  0  0  0  0  0  0  0  0
   23.3290  -13.3850   -0.1930 C   0  0  0  0  0  0  0  0  0  0  0  0
   21.9830  -13.7060   -0.3080 C   0  0  0  0  0  0  0  0  0  0  0  0
   21.0900  -12.7330   -0.7480 C   0  0  0  0  0  0  0  0  0  0  0  0
   18.8550  -13.8270   -0.5690 C   0  0  0  0  0  0  0  0  0  0  0  0
   18.3970  -14.6750   -1.7240 C   0  0  0  0  0  0  0  0  0  0  0  0
   19.3070  -15.5020   -2.3970 C   0  0  0  0  0  0  0  0  0  0  0  0
   18.8910  -16.3220   -3.4340 C   0  0  0  0  0  0  0  0  0  0  0  0
   17.5570  -16.3450   -3.8210 C   0  0  0  0  0  0  0  0  0  0  0  0
   16.6480  -15.5220   -3.1660 C   0  0  0  0  0  0  0  0  0  0  0  0
   17.0660  -14.6960   -2.1390 C   0  0  0  0  0  0  0  0  0  0  0  0
  1 17  1  0  0  0  0
  1 18  1  0  0  0  0
  2  3  1  0  0  0  0
  2  1  1  0  0  0  0
  3  4  1  0  0  0  0
  5  4  1  0  0  0  0
  6  8  1  0  0  0  0
  6  5  1  0  0  0  0
  7  6  1  0  0  0  0
  9  6  1  0  0  0  0
  9 10  1  0  0  0  0
 10  3  1  0  0  0  0
 11  2  2  0  0  0  0
 11 12  2  0  0  0  0
 12 13  1  0  0  0  0
 12 17  1  0  0  0  0
 13 14  1  0  0  0  0
 14 15  2  0  0  0  0
 16 15  1  0  0  0  0
 17 16  2  0  0  0  0
 19 18  1  0  0  0  0
 20 19  2  0  0  0  0
 21 20  1  0  0  0  0
 22 21  2  0  0  0  0
 22 23  1  0  0  0  0
 23 24  2  0  0  0  0
 24 19  1  0  0  0  0
M  END
>  <minimizedAffinity>
-8.10005093

$$$$

 OpenBabel12271915473D

 24 27  0  0  0  0  0  0  0  0999 V2000
   19.6860  -12.6690   -0.9340 N   0  0  0  0  0  0  0  0  0  0  0  0
   19.3140  -11.3870   -1.2770 C   0  0  0  0  0  0  0  0  0  0  0  0
   18.0150  -10.9080   -1.2160 N   0  0  0  0  0  0  0  0  0  0  0  0
   17.8440   -9.6810   -0.4220 C   0  0  0  0  0  0  0  0  0  0  0  0
   17.8240   -8.4310   -1.3300 C   0  0  0  0  0  0  0  0  0  0  0  0
   16.8280   -8.5510   -2.4460 N   0  0  0  0  0  0  0  0  0  0  0  0
   17.3220   -8.4280   -3.3460 H   0  0  0  0  0  0  0  0  0  0  0  0
   16.1500   -7.7860   -2.3540 H   0  0  0  0  0  0  0  0  0  0  0  0
   16.0900   -9.8480   -2.4510 C   0  0  0  0  0  0  0  0  0  0  0  0
   17.0570  -11.0640   -2.3290 C   0  0  0  0  0  0  0  0  0  0  0  0
   20.3870  -10.6550   -1.4440 N   0  0  0  0  0  0  0  0  0  0  0  0
   21.4760  -11.4210   -1.0980 C   0  0  0  0  0  0  0  0  0  0  0  0
   22.8380  -11.1040   -0.9960 C   0  0  0  0  0  0  0  0  0  0  0  0
   23.7370  -12.0830   -0.5670 C   0  0  0  0  0  0  0  0  0  0  0  0
   23.2980  -13.3470   -0.2240 C   0  0  0  0  0  0  0  0  0  0  0  0
   21.9470  -13.6550   -0.3110 C   0  0  0  0  0  0  0  0  0  0  0  0
   21.0590  -12.6830   -0.7630 C   0  0  0  0  0  0  0  0  0  0  0  0
   18.8140  -13.7450   -0.5230 C   0  0  0  0  0  0  0  0  0  0  0  0
   18.3740  -14.6500   -1.6420 C   0  0  0  0  0  0  0  0  0  0  0  0
   17.0370  -14.6500   -2.0640 C   0  0  0  0  0  0  0  0  0  0  0  0
   16.6260  -15.4440   -3.1230 C   0  0  0  0  0  0  0  0  0  0  0  0
   17.5370  -16.2520   -3.7910 C   0  0  0  0  0  0  0  0  0  0  0  0
   18.8620  -16.2660   -3.3750 C   0  0  0  0  0  0  0  0  0  0  0  0
   19.2700  -15.4810   -2.3120 C   0  0  0  0  0  0  0  0  0  0  0  0
  1 17  1  0  0  0  0
  1 18  1  0  0  0  0
  2  3  1  0  0  0  0
  2  1  1  0  0  0  0
  3  4  1  0  0  0  0
  5  4  1  0  0  0  0
  6  8  1  0  0  0  0
  6  5  1  0  0  0  0
  7  6  1  0  0  0  0
  9  6  1  0  0  0  0
  9 10  1  0  0  0  0
 10  3  1  0  0  0  0
 11  2  2  0  0  0  0
 11 12  2  0  0  0  0
 12 13  1  0  0  0  0
 12 17  1  0  0  0  0
 13 14  1  0  0  0  0
 14 15  2  0  0  0  0
 16 15  1  0  0  0  0
 17 16  2  0  0  0  0
 19 18  1  0  0  0  0
 20 19  1  0  0  0  0
 21 20  2  0  0  0  0
 22 23  2  0  0  0  0
 22 21  1  0  0  0  0
 23 24  1  0  0  0  0
 24 19  2  0  0  0  0
M  END
>  <minimizedAffinity>
-8.05736828

$$$$

 OpenBabel12271915473D

 24 27  0  0  0  0  0  0  0  0999 V2000
   21.8630  -12.3640   -0.8420 N   0  0  0  0  0  0  0  0  0  0  0  0
   21.5170  -11.1300   -1.3510 C   0  0  0  0  0  0  0  0  0  0  0  0
   20.2310  -10.6140   -1.3410 N   0  0  0  0  0  0  0  0  0  0  0  0
   20.1020   -9.2880   -0.7160 C   0  0  0  0  0  0  0  0  0  0  0  0
   20.0990   -8.1700   -1.7840 C   0  0  0  0  0  0  0  0  0  0  0  0
   19.0840   -8.4130   -2.8630 N   0  0  0  0  0  0  0  0  0  0  0  0
   19.5680   -8.4250   -3.7760 H   0  0  0  0  0  0  0  0  0  0  0  0
   18.4260   -7.6260   -2.8660 H   0  0  0  0  0  0  0  0  0  0  0  0
   18.3150   -9.6800   -2.6840 C   0  0  0  0  0  0  0  0  0  0  0  0
   19.2530  -10.8930   -2.4100 C   0  0  0  0  0  0  0  0  0  0  0  0
   22.6050  -10.4560   -1.6270 N   0  0  0  0  0  0  0  0  0  0  0  0
   23.6800  -11.1970   -1.1940 C   0  0  0  0  0  0  0  0  0  0  0  0
   25.0510  -10.9050   -1.1510 C   0  0  0  0  0  0  0  0  0  0  0  0
   25.9320  -11.8400   -0.6050 C   0  0  0  0  0  0  0  0  0  0  0  0
   25.4680  -13.0340   -0.0890 C   0  0  0  0  0  0  0  0  0  0  0  0
   24.1080  -13.3160   -0.1180 C   0  0  0  0  0  0  0  0  0  0  0  0
   23.2380  -12.3910   -0.6870 C   0  0  0  0  0  0  0  0  0  0  0  0
   20.9720  -13.3520   -0.2810 C   0  0  0  0  0  0  0  0  0  0  0  0
   20.2810  -14.2170   -1.3000 C   0  0  0  0  0  0  0  0  0  0  0  0
   18.8900  -14.3870   -1.2550 C   0  0  0  0  0  0  0  0  0  0  0  0
   18.2340  -15.1440   -2.2130 C   0  0  0  0  0  0  0  0  0  0  0  0
   18.9460  -15.7440   -3.2430 C   0  0  0  0  0  0  0  0  0  0  0  0
   20.3260  -15.5890   -3.2920 C   0  0  0  0  0  0  0  0  0  0  0  0
   20.9810  -14.8430   -2.3300 C   0  0  0  0  0  0  0  0  0  0  0  0
  1 17  1  0  0  0  0
  1 18  1  0  0  0  0
  2  3  1  0  0  0  0
  2  1  1  0  0  0  0
  3  4  1  0  0  0  0
  5  4  1  0  0  0  0
  6  9  1  0  0  0  0
  6  5  1  0  0  0  0
  7  6  1  0  0  0  0
  8  6  1  0  0  0  0
  9 10  1  0  0  0  0
 10  3  1  0  0  0  0
 11  2  2  0  0  0  0
 11 12  2  0  0  0  0
 12 13  1  0  0  0  0
 12 17  1  0  0  0  0
 13 14  1  0  0  0  0
 14 15  2  0  0  0  0
 16 15  1  0  0  0  0
 17 16  2  0  0  0  0
 19 20  1  0  0  0  0
 19 18  1  0  0  0  0
 21 20  2  0  0  0  0
 22 21  1  0  0  0  0
 23 22  2  0  0  0  0
 23 24  1  0  0  0  0
 24 19  2  0  0  0  0
M  END
>  <minimizedAffinity>
-7.68539619

$$$$

 OpenBabel12271915473D

 24 27  0  0  0  0  0  0  0  0999 V2000
   20.4500  -12.2820   -0.6250 N   0  0  0  0  0  0  0  0  0  0  0  0
   21.6910  -11.8370   -1.0290 C   0  0  0  0  0  0  0  0  0  0  0  0
   22.7900  -12.6590   -1.2260 N   0  0  0  0  0  0  0  0  0  0  0  0
   23.4170  -12.5460   -2.5520 C   0  0  0  0  0  0  0  0  0  0  0  0
   24.6450  -11.6090   -2.5060 C   0  0  0  0  0  0  0  0  0  0  0  0
   25.6160  -11.9930   -1.4280 N   0  0  0  0  0  0  0  0  0  0  0  0
   25.7550  -11.1810   -0.8030 H   0  0  0  0  0  0  0  0  0  0  0  0
   26.5170  -12.2070   -1.8700 H   0  0  0  0  0  0  0  0  0  0  0  0
   25.1820  -13.1750   -0.6260 C   0  0  0  0  0  0  0  0  0  0  0  0
   23.7110  -13.0320   -0.1340 C   0  0  0  0  0  0  0  0  0  0  0  0
   21.6010  -10.5850   -1.4020 N   0  0  0  0  0  0  0  0  0  0  0  0
   20.2740  -10.2280   -1.3580 C   0  0  0  0  0  0  0  0  0  0  0  0
   19.6180   -9.0510   -1.7470 C   0  0  0  0  0  0  0  0  0  0  0  0
   18.2280   -8.9760   -1.6340 C   0  0  0  0  0  0  0  0  0  0  0  0
   17.4950  -10.0490   -1.1660 C   0  0  0  0  0  0  0  0  0  0  0  0
   18.1460  -11.2180   -0.7950 C   0  0  0  0  0  0  0  0  0  0  0  0
   19.5330  -11.2790   -0.8860 C   0  0  0  0  0  0  0  0  0  0  0  0
   20.0840  -13.6350   -0.2770 C   0  0  0  0  0  0  0  0  0  0  0  0
   19.5210  -14.4400   -1.4160 C   0  0  0  0  0  0  0  0  0  0  0  0
   20.3790  -15.1330   -2.2820 C   0  0  0  0  0  0  0  0  0  0  0  0
   19.8740  -15.9150   -3.3080 C   0  0  0  0  0  0  0  0  0  0  0  0
   18.5020  -16.0320   -3.4930 C   0  0  0  0  0  0  0  0  0  0  0  0
   17.6430  -15.3420   -2.6470 C   0  0  0  0  0  0  0  0  0  0  0  0
   18.1480  -14.5540   -1.6290 C   0  0  0  0  0  0  0  0  0  0  0  0
  1 18  1  0  0  0  0
  2  1  1  0  0  0  0
  3  2  1  0  0  0  0
  3 10  1  0  0  0  0
  4  5  1  0  0  0  0
  4  3  1  0  0  0  0
  5  6  1  0  0  0  0
  6  7  1  0  0  0  0
  6  9  1  0  0  0  0
  8  6  1  0  0  0  0
  9 10  1  0  0  0  0
 11 12  2  0  0  0  0
 11  2  2  0  0  0  0
 12 17  1  0  0  0  0
 13 14  1  0  0  0  0
 13 12  1  0  0  0  0
 14 15  2  0  0  0  0
 15 16  1  0  0  0  0
 17 16  2  0  0  0  0
 17  1  1  0  0  0  0
 19 18  1  0  0  0  0
 20 19  2  0  0  0  0
 21 20  1  0  0  0  0
 22 21  2  0  0  0  0
 22 23  1  0  0  0  0
 23 24  2  0  0  0  0
 24 19  1  0  0  0  0
M  END
>  <minimizedAffinity>
-7.47575283

$$$$

 OpenBabel12271915473D

 24 27  0  0  0  0  0  0  0  0999 V2000
   20.8960  -12.3660   -2.3400 N   0  0  0  0  0  0  0  0  0  0  0  0
   22.1420  -12.8430   -1.9920 C   0  0  0  0  0  0  0  0  0  0  0  0
   23.1370  -12.0750   -1.4080 N   0  0  0  0  0  0  0  0  0  0  0  0
   23.6750  -12.6130   -0.1480 C   0  0  0  0  0  0  0  0  0  0  0  0
   24.9890  -13.3880   -0.3920 C   0  0  0  0  0  0  0  0  0  0  0  0
   25.9940  -12.5820   -1.1620 N   0  0  0  0  0  0  0  0  0  0  0  0
   26.2570  -13.1060   -2.0140 H   0  0  0  0  0  0  0  0  0  0  0  0
   26.8340  -12.4810   -0.5830 H   0  0  0  0  0  0  0  0  0  0  0  0
   25.5050  -11.2230   -1.5400 C   0  0  0  0  0  0  0  0  0  0  0  0
   24.0950  -11.2770   -2.1990 C   0  0  0  0  0  0  0  0  0  0  0  0
   22.1490  -14.1480   -2.0910 N   0  0  0  0  0  0  0  0  0  0  0  0
   20.8700  -14.5540   -2.3940 C   0  0  0  0  0  0  0  0  0  0  0  0
   20.3050  -15.8310   -2.5110 C   0  0  0  0  0  0  0  0  0  0  0  0
   18.9420  -15.9530   -2.7850 C   0  0  0  0  0  0  0  0  0  0  0  0
   18.1430  -14.8340   -2.9220 C   0  0  0  0  0  0  0  0  0  0  0  0
   18.7010  -13.5690   -2.7910 C   0  0  0  0  0  0  0  0  0  0  0  0
   20.0660  -13.4540   -2.5420 C   0  0  0  0  0  0  0  0  0  0  0  0
   20.4260  -11.0050   -2.2290 C   0  0  0  0  0  0  0  0  0  0  0  0
   20.1750  -10.3240   -3.5470 C   0  0  0  0  0  0  0  0  0  0  0  0
   19.0330   -9.5310   -3.7250 C   0  0  0  0  0  0  0  0  0  0  0  0
   18.8110   -8.8610   -4.9170 C   0  0  0  0  0  0  0  0  0  0  0  0
   19.7250   -8.9570   -5.9590 C   0  0  0  0  0  0  0  0  0  0  0  0
   20.8570   -9.7470   -5.7950 C   0  0  0  0  0  0  0  0  0  0  0  0
   21.0720  -10.4240   -4.6090 C   0  0  0  0  0  0  0  0  0  0  0  0
  1 18  1  0  0  0  0
  1  2  1  0  0  0  0
  2  3  1  0  0  0  0
  3  4  1  0  0  0  0
  5  4  1  0  0  0  0
  6  8  1  0  0  0  0
  6  5  1  0  0  0  0
  7  6  1  0  0  0  0
  9  6  1  0  0  0  0
 10  9  1  0  0  0  0
 10  3  1  0  0  0  0
 11  2  2  0  0  0  0
 12 11  2  0  0  0  0
 13 12  1  0  0  0  0
 14 13  1  0  0  0  0
 15 16  1  0  0  0  0
 15 14  2  0  0  0  0
 16 17  2  0  0  0  0
 17 12  1  0  0  0  0
 17  1  1  0  0  0  0
 19 18  1  0  0  0  0
 20 19  1  0  0  0  0
 21 20  2  0  0  0  0
 22 23  2  0  0  0  0
 22 21  1  0  0  0  0
 23 24  1  0  0  0  0
 24 19  2  0  0  0  0
M  END
>  <minimizedAffinity>
-7.14381123

$$$$

 OpenBabel12271915473D

 24 27  0  0  0  0  0  0  0  0999 V2000
   18.8870  -13.4490   -1.7130 N   0  0  0  0  0  0  0  0  0  0  0  0
   20.2340  -13.7260   -1.8200 C   0  0  0  0  0  0  0  0  0  0  0  0
   21.2130  -13.1680   -1.0140 N   0  0  0  0  0  0  0  0  0  0  0  0
   22.0810  -14.1400   -0.3310 C   0  0  0  0  0  0  0  0  0  0  0  0
   23.4070  -14.3370   -1.1000 C   0  0  0  0  0  0  0  0  0  0  0  0
   24.0970  -13.0360   -1.3890 N   0  0  0  0  0  0  0  0  0  0  0  0
   24.2410  -12.9570   -2.4100 H   0  0  0  0  0  0  0  0  0  0  0  0
   25.0200  -13.0570   -0.9430 H   0  0  0  0  0  0  0  0  0  0  0  0
   23.3520  -11.8410   -0.8930 C   0  0  0  0  0  0  0  0  0  0  0  0
   21.8540  -11.8740   -1.3220 C   0  0  0  0  0  0  0  0  0  0  0  0
   20.4020  -14.7420   -2.6300 N   0  0  0  0  0  0  0  0  0  0  0  0
   19.1590  -15.2180   -2.9720 C   0  0  0  0  0  0  0  0  0  0  0  0
   18.7680  -16.3370   -3.7220 C   0  0  0  0  0  0  0  0  0  0  0  0
   17.4080  -16.6150   -3.8750 C   0  0  0  0  0  0  0  0  0  0  0  0
   16.4500  -15.8170   -3.2810 C   0  0  0  0  0  0  0  0  0  0  0  0
   16.8390  -14.7180   -2.5270 C   0  0  0  0  0  0  0  0  0  0  0  0
   18.1950  -14.4310   -2.3990 C   0  0  0  0  0  0  0  0  0  0  0  0
   18.2650  -12.5050   -0.8150 C   0  0  0  0  0  0  0  0  0  0  0  0
   18.0130  -11.1490   -1.4150 C   0  0  0  0  0  0  0  0  0  0  0  0
   18.3000  -10.9110   -2.7670 C   0  0  0  0  0  0  0  0  0  0  0  0
   18.0310   -9.6820   -3.3460 C   0  0  0  0  0  0  0  0  0  0  0  0
   17.4620   -8.6600   -2.5960 C   0  0  0  0  0  0  0  0  0  0  0  0
   17.1820   -8.8820   -1.2530 C   0  0  0  0  0  0  0  0  0  0  0  0
   17.4610  -10.1060   -0.6730 C   0  0  0  0  0  0  0  0  0  0  0  0
  1 18  1  0  0  0  0
  2  1  1  0  0  0  0
  2  3  1  0  0  0  0
  3  4  1  0  0  0  0
  5  4  1  0  0  0  0
  6  5  1  0  0  0  0
  6  8  1  0  0  0  0
  6  9  1  0  0  0  0
  7  6  1  0  0  0  0
 10  3  1  0  0  0  0
 10  9  1  0  0  0  0
 11  2  2  0  0  0  0
 12 11  2  0  0  0  0
 12 17  1  0  0  0  0
 13 12  1  0  0  0  0
 14 13  1  0  0  0  0
 14 15  2  0  0  0  0
 15 16  1  0  0  0  0
 16 17  2  0  0  0  0
 17  1  1  0  0  0  0
 19 18  1  0  0  0  0
 19 24  2  0  0  0  0
 20 19  1  0  0  0  0
 21 20  2  0  0  0  0
 21 22  1  0  0  0  0
 22 23  2  0  0  0  0
 23 24  1  0  0  0  0
M  END
>  <minimizedAffinity>
-7.05499983

$$$$

 OpenBabel12271915473D

 24 27  0  0  0  0  0  0  0  0999 V2000
   22.2100  -12.4020   -1.9280 N   0  0  0  0  0  0  0  0  0  0  0  0
   21.4520  -11.4320   -2.5490 C   0  0  0  0  0  0  0  0  0  0  0  0
   21.8270  -10.7690   -3.7060 N   0  0  0  0  0  0  0  0  0  0  0  0
   20.8460  -10.8300   -4.8000 C   0  0  0  0  0  0  0  0  0  0  0  0
   19.9790   -9.5510   -4.8400 C   0  0  0  0  0  0  0  0  0  0  0  0
   20.8080   -8.3000   -4.8650 N   0  0  0  0  0  0  0  0  0  0  0  0
   20.5370   -7.7070   -4.0610 H   0  0  0  0  0  0  0  0  0  0  0  0
   20.5860   -7.7850   -5.7240 H   0  0  0  0  0  0  0  0  0  0  0  0
   22.2780   -8.5570   -4.8260 C   0  0  0  0  0  0  0  0  0  0  0  0
   22.6620   -9.5520   -3.6900 C   0  0  0  0  0  0  0  0  0  0  0  0
   20.2590  -11.4070   -2.0100 N   0  0  0  0  0  0  0  0  0  0  0  0
   20.1830  -12.4410   -1.1070 C   0  0  0  0  0  0  0  0  0  0  0  0
   19.1140  -12.9230   -0.3380 C   0  0  0  0  0  0  0  0  0  0  0  0
   19.3090  -14.0410    0.4760 C   0  0  0  0  0  0  0  0  0  0  0  0
   20.5300  -14.6860    0.5150 C   0  0  0  0  0  0  0  0  0  0  0  0
   21.5830  -14.2150   -0.2580 C   0  0  0  0  0  0  0  0  0  0  0  0
   21.3900  -13.0850   -1.0480 C   0  0  0  0  0  0  0  0  0  0  0  0
   23.5280  -12.8520   -2.3130 C   0  0  0  0  0  0  0  0  0  0  0  0
   24.6460  -12.2870   -1.4790 C   0  0  0  0  0  0  0  0  0  0  0  0
   25.2150  -13.0530   -0.4510 C   0  0  0  0  0  0  0  0  0  0  0  0
   26.2750  -12.5650    0.2960 C   0  0  0  0  0  0  0  0  0  0  0  0
   26.8000  -11.3060    0.0320 C   0  0  0  0  0  0  0  0  0  0  0  0
   26.2380  -10.5360   -0.9780 C   0  0  0  0  0  0  0  0  0  0  0  0
   25.1730  -11.0190   -1.7160 C   0  0  0  0  0  0  0  0  0  0  0  0
  1 17  1  0  0  0  0
  2 11  2  0  0  0  0
  2  1  1  0  0  0  0
  3 10  1  0  0  0  0
  3  2  1  0  0  0  0
  4  3  1  0  0  0  0
  5  4  1  0  0  0  0
  6  5  1  0  0  0  0
  6  9  1  0  0  0  0
  6  7  1  0  0  0  0
  8  6  1  0  0  0  0
  9 10  1  0  0  0  0
 11 12  2  0  0  0  0
 12 17  1  0  0  0  0
 12 13  1  0  0  0  0
 13 14  1  0  0  0  0
 14 15  2  0  0  0  0
 16 15  1  0  0  0  0
 17 16  2  0  0  0  0
 18  1  1  0  0  0  0
 18 19  1  0  0  0  0
 19 20  1  0  0  0  0
 20 21  2  0  0  0  0
 22 21  1  0  0  0  0
 23 22  2  0  0  0  0
 24 19  2  0  0  0  0
 24 23  1  0  0  0  0
M  END
>  <minimizedAffinity>
-7.00825548

$$$$

 OpenBabel12271915473D

 24 27  0  0  0  0  0  0  0  0999 V2000
   21.1870  -11.5600   -1.6430 N   0  0  0  0  0  0  0  0  0  0  0  0
   20.8060  -11.0890   -2.8810 C   0  0  0  0  0  0  0  0  0  0  0  0
   21.1540   -9.8460   -3.3860 N   0  0  0  0  0  0  0  0  0  0  0  0
   21.8120   -9.8750   -4.7010 C   0  0  0  0  0  0  0  0  0  0  0  0
   20.8000   -9.5930   -5.8350 C   0  0  0  0  0  0  0  0  0  0  0  0
   20.0140   -8.3360   -5.5990 N   0  0  0  0  0  0  0  0  0  0  0  0
   19.0070   -8.5700   -5.6050 H   0  0  0  0  0  0  0  0  0  0  0  0
   20.1920   -7.6960   -6.3800 H   0  0  0  0  0  0  0  0  0  0  0  0
   20.3620   -7.6450   -4.3230 C   0  0  0  0  0  0  0  0  0  0  0  0
   20.3650   -8.6280   -3.1140 C   0  0  0  0  0  0  0  0  0  0  0  0
   20.2710  -12.0670   -3.5700 N   0  0  0  0  0  0  0  0  0  0  0  0
   20.4020  -13.2200   -2.8320 C   0  0  0  0  0  0  0  0  0  0  0  0
   20.0970  -14.5540   -3.1360 C   0  0  0  0  0  0  0  0  0  0  0  0
   20.3830  -15.5510   -2.2010 C   0  0  0  0  0  0  0  0  0  0  0  0
   20.9800  -15.2400   -0.9950 C   0  0  0  0  0  0  0  0  0  0  0  0
   21.2950  -13.9200   -0.7010 C   0  0  0  0  0  0  0  0  0  0  0  0
   20.9840  -12.9280   -1.6270 C   0  0  0  0  0  0  0  0  0  0  0  0
   21.9410  -10.8470   -0.6390 C   0  0  0  0  0  0  0  0  0  0  0  0
   23.4310  -11.0430   -0.7230 C   0  0  0  0  0  0  0  0  0  0  0  0
   24.1930  -10.2770   -1.6160 C   0  0  0  0  0  0  0  0  0  0  0  0
   25.5710  -10.4130   -1.6740 C   0  0  0  0  0  0  0  0  0  0  0  0
   26.2240  -11.3110   -0.8380 C   0  0  0  0  0  0  0  0  0  0  0  0
   25.4770  -12.0820    0.0440 C   0  0  0  0  0  0  0  0  0  0  0  0
   24.1010  -11.9520    0.0930 C   0  0  0  0  0  0  0  0  0  0  0  0
  1 17  1  0  0  0  0
  1 18  1  0  0  0  0
  2  1  1  0  0  0  0
  3 10  1  0  0  0  0
  3  2  1  0  0  0  0
  4  3  1  0  0  0  0
  5  6  1  0  0  0  0
  5  4  1  0  0  0  0
  6  9  1  0  0  0  0
  7  6  1  0  0  0  0
  8  6  1  0  0  0  0
  9 10  1  0  0  0  0
 11  2  2  0  0  0  0
 11 12  2  0  0  0  0
 12 17  1  0  0  0  0
 13 12  1  0  0  0  0
 13 14  1  0  0  0  0
 14 15  2  0  0  0  0
 15 16  1  0  0  0  0
 17 16  2  0  0  0  0
 19 18  1  0  0  0  0
 19 24  2  0  0  0  0
 20 19  1  0  0  0  0
 21 20  2  0  0  0  0
 21 22  1  0  0  0  0
 22 23  2  0  0  0  0
 23 24  1  0  0  0  0
M  END
>  <minimizedAffinity>
-6.96529961

$$$$

 OpenBabel12271915473D

 24 27  0  0  0  0  0  0  0  0999 V2000
   20.8140  -12.4530   -3.1910 N   0  0  0  0  0  0  0  0  0  0  0  0
   21.9220  -12.8460   -2.4700 C   0  0  0  0  0  0  0  0  0  0  0  0
   22.8800  -11.9770   -1.9740 N   0  0  0  0  0  0  0  0  0  0  0  0
   23.1300  -12.0920   -0.5290 C   0  0  0  0  0  0  0  0  0  0  0  0
   24.3740  -12.9660   -0.2490 C   0  0  0  0  0  0  0  0  0  0  0  0
   25.5780  -12.5090   -1.0190 N   0  0  0  0  0  0  0  0  0  0  0  0
   25.9250  -13.2970   -1.5910 H   0  0  0  0  0  0  0  0  0  0  0  0
   26.3130  -12.2620   -0.3470 H   0  0  0  0  0  0  0  0  0  0  0  0
   25.3140  -11.3300   -1.8960 C   0  0  0  0  0  0  0  0  0  0  0  0
   24.0410  -11.5330   -2.7710 C   0  0  0  0  0  0  0  0  0  0  0  0
   21.8020  -14.1100   -2.1480 N   0  0  0  0  0  0  0  0  0  0  0  0
   20.5570  -14.5310   -2.5550 C   0  0  0  0  0  0  0  0  0  0  0  0
   19.8840  -15.7470   -2.3710 C   0  0  0  0  0  0  0  0  0  0  0  0
   18.5830  -15.8880   -2.8580 C   0  0  0  0  0  0  0  0  0  0  0  0
   17.9480  -14.8400   -3.4960 C   0  0  0  0  0  0  0  0  0  0  0  0
   18.6100  -13.6320   -3.6640 C   0  0  0  0  0  0  0  0  0  0  0  0
   19.9160  -13.5060   -3.1990 C   0  0  0  0  0  0  0  0  0  0  0  0
   20.4840  -11.1110   -3.6110 C   0  0  0  0  0  0  0  0  0  0  0  0
   19.4750  -10.4170   -2.7380 C   0  0  0  0  0  0  0  0  0  0  0  0
   18.2390  -10.0180   -3.2680 C   0  0  0  0  0  0  0  0  0  0  0  0
   17.2820   -9.4180   -2.4660 C   0  0  0  0  0  0  0  0  0  0  0  0
   17.5280   -9.2070   -1.1150 C   0  0  0  0  0  0  0  0  0  0  0  0
   18.7520   -9.5900   -0.5820 C   0  0  0  0  0  0  0  0  0  0  0  0
   19.7110  -10.1800   -1.3850 C   0  0  0  0  0  0  0  0  0  0  0  0
  1  2  1  0  0  0  0
  2 11  2  0  0  0  0
  2  3  1  0  0  0  0
  3  4  1  0  0  0  0
  4  5  1  0  0  0  0
  6  8  1  0  0  0  0
  6  5  1  0  0  0  0
  7  6  1  0  0  0  0
  9  6  1  0  0  0  0
 10  3  1  0  0  0  0
 10  9  1  0  0  0  0
 12 13  1  0  0  0  0
 12 11  2  0  0  0  0
 14 13  1  0  0  0  0
 15 14  2  0  0  0  0
 16 15  1  0  0  0  0
 16 17  2  0  0  0  0
 17  1  1  0  0  0  0
 17 12  1  0  0  0  0
 18  1  1  0  0  0  0
 18 19  1  0  0  0  0
 19 24  1  0  0  0  0
 20 19  2  0  0  0  0
 20 21  1  0  0  0  0
 21 22  2  0  0  0  0
 22 23  1  0  0  0  0
 24 23  2  0  0  0  0
M  END
>  <minimizedAffinity>
-6.91471672

$$$$
