
 OpenBabel12271915483D

 32 35  0  0  1  0  0  0  0  0999 V2000
   24.7650   -9.4980   -0.5880 C   0  0  1  0  0  0  0  0  0  0  0  0
   25.8580   -8.4720   -0.6380 N   0  0  0  0  0  0  0  0  0  0  0  0
   25.4780   -7.5400   -0.8410 H   0  0  0  0  0  0  0  0  0  0  0  0
   26.3310   -8.4120    0.2670 H   0  0  0  0  0  0  0  0  0  0  0  0
   26.5770   -8.7300   -1.3290 H   0  0  0  0  0  0  0  0  0  0  0  0
   23.8840   -9.4790   -1.8560 C   0  0  0  0  0  0  0  0  0  0  0  0
   22.4250   -9.5920   -1.5790 C   0  0  0  0  0  0  0  0  0  0  0  0
   21.4740  -10.3280   -2.3280 C   0  0  0  0  0  0  0  0  0  0  0  0
   21.5440  -11.1190   -3.4770 C   0  0  0  0  0  0  0  0  0  0  0  0
   20.3950  -11.7340   -3.9700 C   0  0  0  0  0  0  0  0  0  0  0  0
   19.1780  -11.5580   -3.3500 C   0  0  0  0  0  0  0  0  0  0  0  0
   19.0790  -10.7600   -2.2190 C   0  0  0  0  0  0  0  0  0  0  0  0
   20.2430  -10.1580   -1.7250 C   0  0  0  0  0  0  0  0  0  0  0  0
   20.4070   -9.3160   -0.6520 N   0  0  0  0  0  0  0  0  0  0  0  0
   19.6730   -8.9980   -0.0410 H   0  0  0  0  0  0  0  0  0  0  0  0
   21.7310   -8.9720   -0.5610 C   0  0  0  0  0  0  0  0  0  0  0  0
   25.3830  -10.8730   -0.3270 C   0  0  0  0  0  0  0  0  0  0  0  0
   24.3790  -11.6370    0.3370 O   0  0  0  0  0  0  0  0  0  0  0  0
   23.9060  -12.7650   -0.2390 C   0  0  0  0  0  0  0  0  0  0  0  0
   22.5760  -13.0230   -0.5140 C   0  0  0  0  0  0  0  0  0  0  0  0
   22.2160  -14.2120   -1.1620 C   0  0  0  0  0  0  0  0  0  0  0  0
   23.2290  -15.0920   -1.4830 C   0  0  0  0  0  0  0  0  0  0  0  0
   24.5250  -14.8600   -1.2000 N   0  0  0  0  0  0  0  0  0  0  0  0
   24.8510  -13.7080   -0.5850 C   0  0  0  0  0  0  0  0  0  0  0  0
   20.8110  -14.4380   -1.4520 C   0  0  0  0  0  0  0  0  0  0  0  0
   20.3380  -15.2240   -2.4390 C   0  0  0  0  0  0  0  0  0  0  0  0
   18.9200  -15.4540   -2.7320 C   0  0  0  0  0  0  0  0  0  0  0  0
   18.5820  -16.4270   -3.6720 C   0  0  0  0  0  0  0  0  0  0  0  0
   17.2490  -16.6590   -3.9610 C   0  0  0  0  0  0  0  0  0  0  0  0
   16.2440  -15.9820   -3.3700 N   0  0  0  0  0  0  0  0  0  0  0  0
   16.5800  -15.0430   -2.4620 C   0  0  0  0  0  0  0  0  0  0  0  0
   17.8880  -14.7590   -2.1240 C   0  0  0  0  0  0  0  0  0  0  0  0
  1  6  1  6  0  0  0
  1 17  1  0  0  0  0
  2  1  1  0  0  0  0
  2  4  1  0  0  0  0
  3  2  1  0  0  0  0
  5  2  1  0  0  0  0
  6  7  1  0  0  0  0
  7 16  2  0  0  0  0
  8 13  2  0  0  0  0
  8  7  1  0  0  0  0
  9  8  1  0  0  0  0
 10  9  2  0  0  0  0
 10 11  1  0  0  0  0
 11 12  2  0  0  0  0
 12 13  1  0  0  0  0
 13 14  1  0  0  0  0
 14 16  1  0  0  0  0
 14 15  1  0  0  0  0
 17 18  1  0  0  0  0
 19 18  1  0  0  0  0
 20 19  1  0  0  0  0
 21 20  2  0  0  0  0
 22 23  2  0  0  0  0
 22 21  1  0  0  0  0
 23 24  1  0  0  0  0
 24 19  2  0  0  0  0
 25 21  1  0  0  0  0
 26 25  2  0  0  0  0
 27 26  1  0  0  0  0
 27 32  2  0  0  0  0
 28 27  1  0  0  0  0
 29 28  2  0  0  0  0
 29 30  1  0  0  0  0
 30 31  2  0  0  0  0
 31 32  1  0  0  0  0
M  END
>  <minimizedAffinity>
-7.66499662

$$$$

 OpenBabel12271915483D

 32 35  0  0  1  0  0  0  0  0999 V2000
   22.5220  -14.4120   -1.5040 C   0  0  1  0  0  0  0  0  0  0  0  0
   23.7960  -15.1980   -1.4300 N   0  0  0  0  0  0  0  0  0  0  0  0
   23.6100  -16.2070   -1.4790 H   0  0  0  0  0  0  0  0  0  0  0  0
   24.4040  -14.9680   -2.2220 H   0  0  0  0  0  0  0  0  0  0  0  0
   24.3250  -14.9680   -0.5770 H   0  0  0  0  0  0  0  0  0  0  0  0
   21.4850  -14.8760   -0.4580 C   0  0  0  0  0  0  0  0  0  0  0  0
   20.0860  -14.4790   -0.7780 C   0  0  0  0  0  0  0  0  0  0  0  0
   19.2590  -15.0250   -1.7900 C   0  0  0  0  0  0  0  0  0  0  0  0
   19.4350  -16.0170   -2.7570 C   0  0  0  0  0  0  0  0  0  0  0  0
   18.3920  -16.3390   -3.6220 C   0  0  0  0  0  0  0  0  0  0  0  0
   17.1860  -15.6760   -3.5530 C   0  0  0  0  0  0  0  0  0  0  0  0
   16.9940  -14.6730   -2.6140 C   0  0  0  0  0  0  0  0  0  0  0  0
   18.0460  -14.3680   -1.7400 C   0  0  0  0  0  0  0  0  0  0  0  0
   18.1160  -13.4160   -0.7530 N   0  0  0  0  0  0  0  0  0  0  0  0
   17.3830  -12.7710   -0.5080 H   0  0  0  0  0  0  0  0  0  0  0  0
   19.3540  -13.4820   -0.1660 C   0  0  0  0  0  0  0  0  0  0  0  0
   22.8470  -12.9220   -1.3830 C   0  0  0  0  0  0  0  0  0  0  0  0
   23.8940  -12.8240   -0.4200 O   0  0  0  0  0  0  0  0  0  0  0  0
   24.7480  -11.7770   -0.4640 C   0  0  0  0  0  0  0  0  0  0  0  0
   26.0430  -11.7830    0.0210 C   0  0  0  0  0  0  0  0  0  0  0  0
   26.8480  -10.6470   -0.1290 C   0  0  0  0  0  0  0  0  0  0  0  0
   26.2900   -9.5490   -0.7510 C   0  0  0  0  0  0  0  0  0  0  0  0
   25.0230   -9.5260   -1.2080 N   0  0  0  0  0  0  0  0  0  0  0  0
   24.2680  -10.6300   -1.0610 C   0  0  0  0  0  0  0  0  0  0  0  0
   28.2100  -10.6980    0.3750 C   0  0  0  0  0  0  0  0  0  0  0  0
   28.8260  -11.8030    0.8390 C   0  0  0  0  0  0  0  0  0  0  0  0
   30.2000  -11.8560    1.3460 C   0  0  0  0  0  0  0  0  0  0  0  0
   31.1790  -11.1000    0.7010 C   0  0  0  0  0  0  0  0  0  0  0  0
   32.4810  -11.1360    1.1650 C   0  0  0  0  0  0  0  0  0  0  0  0
   32.8590  -11.8750    2.2280 N   0  0  0  0  0  0  0  0  0  0  0  0
   31.9060  -12.6020    2.8460 C   0  0  0  0  0  0  0  0  0  0  0  0
   30.5870  -12.6140    2.4380 C   0  0  0  0  0  0  0  0  0  0  0  0
  1  2  1  0  0  0  0
  1 17  1  1  0  0  0
  1  6  1  0  0  0  0
  2  5  1  0  0  0  0
  3  2  1  0  0  0  0
  4  2  1  0  0  0  0
  7  6  1  0  0  0  0
  7 16  2  0  0  0  0
  8 13  1  0  0  0  0
  8  7  1  0  0  0  0
  9  8  2  0  0  0  0
 10 11  2  0  0  0  0
 10  9  1  0  0  0  0
 11 12  1  0  0  0  0
 12 13  2  0  0  0  0
 13 14  1  0  0  0  0
 14 15  1  0  0  0  0
 14 16  1  0  0  0  0
 17 18  1  0  0  0  0
 19 18  1  0  0  0  0
 19 20  2  0  0  0  0
 21 20  1  0  0  0  0
 21 25  1  0  0  0  0
 22 21  2  0  0  0  0
 23 24  2  0  0  0  0
 23 22  1  0  0  0  0
 24 19  1  0  0  0  0
 25 26  2  0  0  0  0
 26 27  1  0  0  0  0
 27 32  2  0  0  0  0
 28 29  2  0  0  0  0
 28 27  1  0  0  0  0
 29 30  1  0  0  0  0
 30 31  2  0  0  0  0
 32 31  1  0  0  0  0
M  END
>  <minimizedAffinity>
-7.55099583

$$$$

 OpenBabel12271915483D

 32 35  0  0  1  0  0  0  0  0999 V2000
   22.8330   -9.1090   -1.2310 C   0  0  1  0  0  0  0  0  0  0  0  0
   23.7630   -8.0990   -0.6290 N   0  0  0  0  0  0  0  0  0  0  0  0
   23.2670   -7.2260   -0.4120 H   0  0  0  0  0  0  0  0  0  0  0  0
   24.1490   -8.4500    0.2510 H   0  0  0  0  0  0  0  0  0  0  0  0
   24.5640   -7.9160   -1.2500 H   0  0  0  0  0  0  0  0  0  0  0  0
   22.0600   -8.5460   -2.4440 C   0  0  0  0  0  0  0  0  0  0  0  0
   21.0940   -9.5080   -3.0430 C   0  0  0  0  0  0  0  0  0  0  0  0
   19.9740  -10.0940   -2.4050 C   0  0  0  0  0  0  0  0  0  0  0  0
   19.4310  -10.0050   -1.1200 C   0  0  0  0  0  0  0  0  0  0  0  0
   18.2800  -10.7210   -0.7990 C   0  0  0  0  0  0  0  0  0  0  0  0
   17.6730  -11.5370   -1.7290 C   0  0  0  0  0  0  0  0  0  0  0  0
   18.2050  -11.6570   -3.0050 C   0  0  0  0  0  0  0  0  0  0  0  0
   19.3550  -10.9220   -3.3190 C   0  0  0  0  0  0  0  0  0  0  0  0
   20.0790  -10.8860   -4.4850 N   0  0  0  0  0  0  0  0  0  0  0  0
   19.8740  -11.4110   -5.3190 H   0  0  0  0  0  0  0  0  0  0  0  0
   21.1350  -10.0260   -4.3200 C   0  0  0  0  0  0  0  0  0  0  0  0
   23.6240  -10.3720   -1.5770 C   0  0  0  0  0  0  0  0  0  0  0  0
   23.3120  -11.3230   -0.5610 O   0  0  0  0  0  0  0  0  0  0  0  0
   22.9160  -12.5670   -0.9090 C   0  0  0  0  0  0  0  0  0  0  0  0
   21.6600  -12.9020   -1.3820 C   0  0  0  0  0  0  0  0  0  0  0  0
   21.3860  -14.2230   -1.7580 C   0  0  0  0  0  0  0  0  0  0  0  0
   22.4010  -15.1480   -1.6170 C   0  0  0  0  0  0  0  0  0  0  0  0
   23.6200  -14.8360   -1.1380 N   0  0  0  0  0  0  0  0  0  0  0  0
   23.8660  -13.5600   -0.7900 C   0  0  0  0  0  0  0  0  0  0  0  0
   20.0610  -14.5320   -2.2690 C   0  0  0  0  0  0  0  0  0  0  0  0
   19.6860  -15.7160   -2.7910 C   0  0  0  0  0  0  0  0  0  0  0  0
   18.3500  -16.0290   -3.3050 C   0  0  0  0  0  0  0  0  0  0  0  0
   18.2030  -17.1160   -4.1650 C   0  0  0  0  0  0  0  0  0  0  0  0
   16.9500  -17.4270   -4.6610 C   0  0  0  0  0  0  0  0  0  0  0  0
   15.8440  -16.7210   -4.3490 N   0  0  0  0  0  0  0  0  0  0  0  0
   15.9950  -15.6710   -3.5160 C   0  0  0  0  0  0  0  0  0  0  0  0
   17.2140  -15.3040   -2.9830 C   0  0  0  0  0  0  0  0  0  0  0  0
  1  6  1  6  0  0  0
  1  2  1  0  0  0  0
  2  3  1  0  0  0  0
  2  4  1  0  0  0  0
  5  2  1  0  0  0  0
  7  6  1  0  0  0  0
  7  8  1  0  0  0  0
  8  9  2  0  0  0  0
  9 10  1  0  0  0  0
 11 10  2  0  0  0  0
 12 11  1  0  0  0  0
 13 12  2  0  0  0  0
 13  8  1  0  0  0  0
 14 16  1  0  0  0  0
 14 13  1  0  0  0  0
 15 14  1  0  0  0  0
 16  7  2  0  0  0  0
 17  1  1  0  0  0  0
 17 18  1  0  0  0  0
 19 24  1  0  0  0  0
 19 18  1  0  0  0  0
 20 19  2  0  0  0  0
 21 22  2  0  0  0  0
 21 20  1  0  0  0  0
 22 23  1  0  0  0  0
 23 24  2  0  0  0  0
 25 21  1  0  0  0  0
 26 25  2  0  0  0  0
 27 32  1  0  0  0  0
 27 26  1  0  0  0  0
 28 27  2  0  0  0  0
 29 30  2  0  0  0  0
 29 28  1  0  0  0  0
 30 31  1  0  0  0  0
 31 32  2  0  0  0  0
M  END
>  <minimizedAffinity>
-7.51537895

$$$$

 OpenBabel12271915483D

 32 35  0  0  1  0  0  0  0  0999 V2000
   16.3970  -13.8830   -2.7640 C   0  0  1  0  0  0  0  0  0  0  0  0
   15.1820  -13.7890   -3.6370 N   0  0  0  0  0  0  0  0  0  0  0  0
   14.4910  -14.5060   -3.3840 H   0  0  0  0  0  0  0  0  0  0  0  0
   14.7270  -12.8800   -3.5170 H   0  0  0  0  0  0  0  0  0  0  0  0
   15.4340  -13.8620   -4.6320 H   0  0  0  0  0  0  0  0  0  0  0  0
   16.9980  -15.3060   -2.7450 C   0  0  0  0  0  0  0  0  0  0  0  0
   18.4840  -15.3330   -2.6600 C   0  0  0  0  0  0  0  0  0  0  0  0
   19.2790  -14.9240   -1.5600 C   0  0  0  0  0  0  0  0  0  0  0  0
   18.9930  -14.3960   -0.2990 C   0  0  0  0  0  0  0  0  0  0  0  0
   20.0300  -14.1010    0.5840 C   0  0  0  0  0  0  0  0  0  0  0  0
   21.3440  -14.3050    0.2240 C   0  0  0  0  0  0  0  0  0  0  0  0
   21.6530  -14.8100   -1.0310 C   0  0  0  0  0  0  0  0  0  0  0  0
   20.6020  -15.1150   -1.9040 C   0  0  0  0  0  0  0  0  0  0  0  0
   20.6430  -15.5960   -3.1900 N   0  0  0  0  0  0  0  0  0  0  0  0
   21.4780  -15.8050   -3.7100 H   0  0  0  0  0  0  0  0  0  0  0  0
   19.3570  -15.7300   -3.6500 C   0  0  0  0  0  0  0  0  0  0  0  0
   17.4120  -12.8270   -3.2060 C   0  0  0  0  0  0  0  0  0  0  0  0
   17.0730  -11.6350   -2.5000 O   0  0  0  0  0  0  0  0  0  0  0  0
   18.0410  -10.9310   -1.8730 C   0  0  0  0  0  0  0  0  0  0  0  0
   19.3770  -11.2810   -1.8230 C   0  0  0  0  0  0  0  0  0  0  0  0
   20.2950  -10.4400   -1.1810 C   0  0  0  0  0  0  0  0  0  0  0  0
   19.8040   -9.2860   -0.6030 C   0  0  0  0  0  0  0  0  0  0  0  0
   18.5010   -8.9460   -0.6280 N   0  0  0  0  0  0  0  0  0  0  0  0
   17.6370   -9.7650   -1.2560 C   0  0  0  0  0  0  0  0  0  0  0  0
   21.6940  -10.8320   -1.1670 C   0  0  0  0  0  0  0  0  0  0  0  0
   22.5670  -10.5630   -0.1750 C   0  0  0  0  0  0  0  0  0  0  0  0
   23.9770  -10.9600   -0.1600 C   0  0  0  0  0  0  0  0  0  0  0  0
   24.2880  -12.3190   -0.1160 C   0  0  0  0  0  0  0  0  0  0  0  0
   25.6140  -12.7130   -0.1020 C   0  0  0  0  0  0  0  0  0  0  0  0
   26.6380  -11.8370   -0.1300 N   0  0  0  0  0  0  0  0  0  0  0  0
   26.3280  -10.5250   -0.1720 C   0  0  0  0  0  0  0  0  0  0  0  0
   25.0290  -10.0590   -0.1890 C   0  0  0  0  0  0  0  0  0  0  0  0
  1 17  1  6  0  0  0
  1  6  1  0  0  0  0
  2  4  1  0  0  0  0
  2  3  1  0  0  0  0
  2  1  1  0  0  0  0
  5  2  1  0  0  0  0
  6  7  1  0  0  0  0
  7  8  1  0  0  0  0
  8  9  1  0  0  0  0
  9 10  2  0  0  0  0
 11 10  1  0  0  0  0
 12 11  2  0  0  0  0
 13  8  2  0  0  0  0
 13 12  1  0  0  0  0
 14 13  1  0  0  0  0
 15 14  1  0  0  0  0
 16 14  1  0  0  0  0
 16  7  2  0  0  0  0
 17 18  1  0  0  0  0
 18 19  1  0  0  0  0
 19 20  2  0  0  0  0
 19 24  1  0  0  0  0
 20 21  1  0  0  0  0
 21 25  1  0  0  0  0
 21 22  2  0  0  0  0
 23 22  1  0  0  0  0
 24 23  2  0  0  0  0
 25 26  2  0  0  0  0
 26 27  1  0  0  0  0
 27 28  2  0  0  0  0
 28 29  1  0  0  0  0
 30 29  2  0  0  0  0
 31 30  1  0  0  0  0
 32 31  2  0  0  0  0
 32 27  1  0  0  0  0
M  END
>  <minimizedAffinity>
-7.49985218

$$$$

 OpenBabel12271915483D

 32 35  0  0  1  0  0  0  0  0999 V2000
   20.2470  -14.7430   -0.8840 C   0  0  1  0  0  0  0  0  0  0  0  0
   19.9030  -14.1880    0.4660 N   0  0  0  0  0  0  0  0  0  0  0  0
   18.8860  -14.1070    0.5820 H   0  0  0  0  0  0  0  0  0  0  0  0
   20.2380  -14.8140    1.2040 H   0  0  0  0  0  0  0  0  0  0  0  0
   20.3600  -13.2790    0.6210 H   0  0  0  0  0  0  0  0  0  0  0  0
   19.5800  -13.9510   -2.0300 C   0  0  0  0  0  0  0  0  0  0  0  0
   18.2160  -14.4330   -2.3840 C   0  0  0  0  0  0  0  0  0  0  0  0
   17.8940  -15.5700   -3.1640 C   0  0  0  0  0  0  0  0  0  0  0  0
   18.6510  -16.5420   -3.8240 C   0  0  0  0  0  0  0  0  0  0  0  0
   18.0150  -17.5690   -4.5170 C   0  0  0  0  0  0  0  0  0  0  0  0
   16.6400  -17.6330   -4.5790 C   0  0  0  0  0  0  0  0  0  0  0  0
   15.8670  -16.6680   -3.9500 C   0  0  0  0  0  0  0  0  0  0  0  0
   16.5190  -15.6480   -3.2450 C   0  0  0  0  0  0  0  0  0  0  0  0
   15.9900  -14.5770   -2.5660 N   0  0  0  0  0  0  0  0  0  0  0  0
   15.0100  -14.3660   -2.4780 H   0  0  0  0  0  0  0  0  0  0  0  0
   17.0200  -13.8390   -2.0420 C   0  0  0  0  0  0  0  0  0  0  0  0
   21.7690  -14.8040   -1.0250 C   0  0  0  0  0  0  0  0  0  0  0  0
   22.2820  -13.7420   -0.2230 O   0  0  0  0  0  0  0  0  0  0  0  0
   23.3100  -12.9950   -0.6820 C   0  0  0  0  0  0  0  0  0  0  0  0
   24.4860  -12.7510    0.0030 C   0  0  0  0  0  0  0  0  0  0  0  0
   25.5020  -11.9990   -0.6020 C   0  0  0  0  0  0  0  0  0  0  0  0
   25.2640  -11.5150   -1.8720 C   0  0  0  0  0  0  0  0  0  0  0  0
   24.1140  -11.7290   -2.5390 N   0  0  0  0  0  0  0  0  0  0  0  0
   23.1530  -12.4600   -1.9430 C   0  0  0  0  0  0  0  0  0  0  0  0
   26.7310  -11.7810    0.1410 C   0  0  0  0  0  0  0  0  0  0  0  0
   27.7060  -10.9160   -0.2050 C   0  0  0  0  0  0  0  0  0  0  0  0
   28.9450  -10.6950    0.5450 C   0  0  0  0  0  0  0  0  0  0  0  0
   29.6190  -11.8020    1.0620 C   0  0  0  0  0  0  0  0  0  0  0  0
   30.7910  -11.6130    1.7720 C   0  0  0  0  0  0  0  0  0  0  0  0
   31.3240  -10.3950    1.9930 N   0  0  0  0  0  0  0  0  0  0  0  0
   30.6670   -9.3310    1.4900 C   0  0  0  0  0  0  0  0  0  0  0  0
   29.4930   -9.4440    0.7720 C   0  0  0  0  0  0  0  0  0  0  0  0
  1  6  1  6  0  0  0
  1  2  1  0  0  0  0
  2  3  1  0  0  0  0
  2  5  1  0  0  0  0
  2  4  1  0  0  0  0
  7 16  2  0  0  0  0
  7  6  1  0  0  0  0
  8  7  1  0  0  0  0
  9  8  2  0  0  0  0
 10  9  1  0  0  0  0
 11 10  2  0  0  0  0
 11 12  1  0  0  0  0
 12 13  2  0  0  0  0
 13  8  1  0  0  0  0
 13 14  1  0  0  0  0
 14 15  1  0  0  0  0
 14 16  1  0  0  0  0
 17  1  1  0  0  0  0
 17 18  1  0  0  0  0
 19 18  1  0  0  0  0
 19 20  2  0  0  0  0
 21 20  1  0  0  0  0
 21 25  1  0  0  0  0
 22 21  2  0  0  0  0
 23 24  2  0  0  0  0
 23 22  1  0  0  0  0
 24 19  1  0  0  0  0
 26 25  2  0  0  0  0
 26 27  1  0  0  0  0
 27 32  2  0  0  0  0
 27 28  1  0  0  0  0
 28 29  2  0  0  0  0
 29 30  1  0  0  0  0
 31 30  2  0  0  0  0
 32 31  1  0  0  0  0
M  END
>  <minimizedAffinity>
-7.43918467

$$$$

 OpenBabel12271915483D

 32 35  0  0  1  0  0  0  0  0999 V2000
   17.0700  -14.9750   -2.6700 C   0  0  1  0  0  0  0  0  0  0  0  0
   16.0630  -15.9350   -3.2300 N   0  0  0  0  0  0  0  0  0  0  0  0
   16.0300  -16.7990   -2.6760 H   0  0  0  0  0  0  0  0  0  0  0  0
   15.1250  -15.5250   -3.2000 H   0  0  0  0  0  0  0  0  0  0  0  0
   16.2600  -16.1450   -4.2190 H   0  0  0  0  0  0  0  0  0  0  0  0
   18.4620  -15.6210   -2.4950 C   0  0  0  0  0  0  0  0  0  0  0  0
   19.3460  -14.9000   -1.5390 C   0  0  0  0  0  0  0  0  0  0  0  0
   20.7540  -14.7720   -1.6160 C   0  0  0  0  0  0  0  0  0  0  0  0
   21.7230  -15.2310   -2.5120 C   0  0  0  0  0  0  0  0  0  0  0  0
   23.0650  -14.9150   -2.3090 C   0  0  0  0  0  0  0  0  0  0  0  0
   23.4570  -14.1660   -1.2210 C   0  0  0  0  0  0  0  0  0  0  0  0
   22.5160  -13.7160   -0.3070 C   0  0  0  0  0  0  0  0  0  0  0  0
   21.1690  -14.0300   -0.5290 C   0  0  0  0  0  0  0  0  0  0  0  0
   20.0630  -13.7280    0.2280 N   0  0  0  0  0  0  0  0  0  0  0  0
   20.0690  -13.2140    1.0930 H   0  0  0  0  0  0  0  0  0  0  0  0
   18.9550  -14.2550   -0.3840 C   0  0  0  0  0  0  0  0  0  0  0  0
   17.1130  -13.7260   -3.5530 C   0  0  0  0  0  0  0  0  0  0  0  0
   16.8530  -12.6230   -2.6870 O   0  0  0  0  0  0  0  0  0  0  0  0
   17.8010  -11.6760   -2.5080 C   0  0  0  0  0  0  0  0  0  0  0  0
   19.1270  -11.7940   -2.8780 C   0  0  0  0  0  0  0  0  0  0  0  0
   20.0040  -10.7190   -2.6840 C   0  0  0  0  0  0  0  0  0  0  0  0
   19.4910   -9.5770   -2.1050 C   0  0  0  0  0  0  0  0  0  0  0  0
   18.2050   -9.4590   -1.7210 N   0  0  0  0  0  0  0  0  0  0  0  0
   17.3770  -10.5010   -1.9230 C   0  0  0  0  0  0  0  0  0  0  0  0
   21.3860  -10.8750   -3.1050 C   0  0  0  0  0  0  0  0  0  0  0  0
   22.4650  -10.5660   -2.3580 C   0  0  0  0  0  0  0  0  0  0  0  0
   23.8590  -10.7240   -2.7810 C   0  0  0  0  0  0  0  0  0  0  0  0
   24.1430  -10.7550   -4.1470 C   0  0  0  0  0  0  0  0  0  0  0  0
   25.4530  -10.9030   -4.5650 C   0  0  0  0  0  0  0  0  0  0  0  0
   26.4860  -11.0200   -3.7080 N   0  0  0  0  0  0  0  0  0  0  0  0
   26.2030  -10.9890   -2.3900 C   0  0  0  0  0  0  0  0  0  0  0  0
   24.9210  -10.8430   -1.9000 C   0  0  0  0  0  0  0  0  0  0  0  0
  1 17  1  6  0  0  0
  1  6  1  0  0  0  0
  2  4  1  0  0  0  0
  2  3  1  0  0  0  0
  2  1  1  0  0  0  0
  5  2  1  0  0  0  0
  6  7  1  0  0  0  0
  7 16  2  0  0  0  0
  8  7  1  0  0  0  0
  8 13  2  0  0  0  0
  9 10  2  0  0  0  0
  9  8  1  0  0  0  0
 10 11  1  0  0  0  0
 11 12  2  0  0  0  0
 13 12  1  0  0  0  0
 13 14  1  0  0  0  0
 14 15  1  0  0  0  0
 16 14  1  0  0  0  0
 17 18  1  0  0  0  0
 18 19  1  0  0  0  0
 19 24  2  0  0  0  0
 20 21  2  0  0  0  0
 20 19  1  0  0  0  0
 21 22  1  0  0  0  0
 22 23  2  0  0  0  0
 24 23  1  0  0  0  0
 25 21  1  0  0  0  0
 25 26  2  0  0  0  0
 27 26  1  0  0  0  0
 27 32  2  0  0  0  0
 28 27  1  0  0  0  0
 29 28  2  0  0  0  0
 29 30  1  0  0  0  0
 30 31  2  0  0  0  0
 31 32  1  0  0  0  0
M  END
>  <minimizedAffinity>
-7.40072727

$$$$

 OpenBabel12271915483D

 32 35  0  0  1  0  0  0  0  0999 V2000
   22.9210   -8.6910   -1.0670 C   0  0  1  0  0  0  0  0  0  0  0  0
   23.9670   -7.6270   -0.9190 N   0  0  0  0  0  0  0  0  0  0  0  0
   24.8990   -8.0410   -0.8010 H   0  0  0  0  0  0  0  0  0  0  0  0
   24.0040   -7.0440   -1.7610 H   0  0  0  0  0  0  0  0  0  0  0  0
   23.7480   -6.9970   -0.1350 H   0  0  0  0  0  0  0  0  0  0  0  0
   22.9700   -9.7250    0.0790 C   0  0  0  0  0  0  0  0  0  0  0  0
   23.6210  -11.0110   -0.2950 C   0  0  0  0  0  0  0  0  0  0  0  0
   22.9770  -12.2490   -0.5380 C   0  0  0  0  0  0  0  0  0  0  0  0
   21.6460  -12.6730   -0.5090 C   0  0  0  0  0  0  0  0  0  0  0  0
   21.3290  -13.9940   -0.8180 C   0  0  0  0  0  0  0  0  0  0  0  0
   22.3160  -14.9010   -1.1360 C   0  0  0  0  0  0  0  0  0  0  0  0
   23.6470  -14.5080   -1.1520 C   0  0  0  0  0  0  0  0  0  0  0  0
   23.9510  -13.1740   -0.8520 C   0  0  0  0  0  0  0  0  0  0  0  0
   25.1720  -12.5500   -0.7780 N   0  0  0  0  0  0  0  0  0  0  0  0
   26.0640  -12.9890   -0.9350 H   0  0  0  0  0  0  0  0  0  0  0  0
   24.9740  -11.2360   -0.4400 C   0  0  0  0  0  0  0  0  0  0  0  0
   21.5490   -8.0270   -1.1960 C   0  0  0  0  0  0  0  0  0  0  0  0
   20.8690   -8.7250   -2.2370 O   0  0  0  0  0  0  0  0  0  0  0  0
   19.8740   -9.5850   -1.9260 C   0  0  0  0  0  0  0  0  0  0  0  0
   19.5900  -10.7560   -2.6050 C   0  0  0  0  0  0  0  0  0  0  0  0
   18.5600  -11.5910   -2.1530 C   0  0  0  0  0  0  0  0  0  0  0  0
   17.8540  -11.1850   -1.0390 C   0  0  0  0  0  0  0  0  0  0  0  0
   18.1090  -10.0370   -0.3830 N   0  0  0  0  0  0  0  0  0  0  0  0
   19.1080   -9.2520   -0.8290 C   0  0  0  0  0  0  0  0  0  0  0  0
   18.3050  -12.8220   -2.8810 C   0  0  0  0  0  0  0  0  0  0  0  0
   17.8000  -13.9510   -2.3450 C   0  0  0  0  0  0  0  0  0  0  0  0
   17.5410  -15.1930   -3.0790 C   0  0  0  0  0  0  0  0  0  0  0  0
   16.2210  -15.5230   -3.3890 C   0  0  0  0  0  0  0  0  0  0  0  0
   15.9570  -16.6900   -4.0820 C   0  0  0  0  0  0  0  0  0  0  0  0
   16.9250  -17.5390   -4.4810 N   0  0  0  0  0  0  0  0  0  0  0  0
   18.1980  -17.2130   -4.1770 C   0  0  0  0  0  0  0  0  0  0  0  0
   18.5360  -16.0650   -3.4900 C   0  0  0  0  0  0  0  0  0  0  0  0
  1 17  1  1  0  0  0
  1  2  1  0  0  0  0
  1  6  1  0  0  0  0
  2  3  1  0  0  0  0
  2  5  1  0  0  0  0
  4  2  1  0  0  0  0
  7  6  1  0  0  0  0
  8  9  1  0  0  0  0
  8  7  1  0  0  0  0
 10  9  2  0  0  0  0
 11 10  1  0  0  0  0
 12 11  2  0  0  0  0
 12 13  1  0  0  0  0
 13 14  1  0  0  0  0
 13  8  2  0  0  0  0
 14 16  1  0  0  0  0
 15 14  1  0  0  0  0
 16  7  2  0  0  0  0
 18 19  1  0  0  0  0
 18 17  1  0  0  0  0
 19 24  2  0  0  0  0
 20 21  2  0  0  0  0
 20 19  1  0  0  0  0
 21 22  1  0  0  0  0
 22 23  2  0  0  0  0
 24 23  1  0  0  0  0
 25 26  2  0  0  0  0
 25 21  1  0  0  0  0
 27 26  1  0  0  0  0
 28 27  1  0  0  0  0
 29 28  2  0  0  0  0
 30 31  2  0  0  0  0
 30 29  1  0  0  0  0
 31 32  1  0  0  0  0
 32 27  2  0  0  0  0
M  END
>  <minimizedAffinity>
-7.27156305

$$$$

 OpenBabel12271915483D

 32 35  0  0  1  0  0  0  0  0999 V2000
   22.4570  -14.5860   -1.7880 C   0  0  1  0  0  0  0  0  0  0  0  0
   23.0980  -15.7570   -2.4700 N   0  0  0  0  0  0  0  0  0  0  0  0
   22.3900  -16.4250   -2.7970 H   0  0  0  0  0  0  0  0  0  0  0  0
   23.6190  -15.4470   -3.2940 H   0  0  0  0  0  0  0  0  0  0  0  0
   23.7770  -16.2210   -1.8500 H   0  0  0  0  0  0  0  0  0  0  0  0
   21.4860  -15.0200   -0.6670 C   0  0  0  0  0  0  0  0  0  0  0  0
   20.0700  -14.6280   -0.9100 C   0  0  0  0  0  0  0  0  0  0  0  0
   19.2020  -15.1530   -1.8980 C   0  0  0  0  0  0  0  0  0  0  0  0
   19.3420  -16.1150   -2.9020 C   0  0  0  0  0  0  0  0  0  0  0  0
   18.2630  -16.4220   -3.7280 C   0  0  0  0  0  0  0  0  0  0  0  0
   17.0550  -15.7750   -3.5820 C   0  0  0  0  0  0  0  0  0  0  0  0
   16.8980  -14.8010   -2.6060 C   0  0  0  0  0  0  0  0  0  0  0  0
   17.9870  -14.5110   -1.7740 C   0  0  0  0  0  0  0  0  0  0  0  0
   18.0940  -13.5880   -0.7630 N   0  0  0  0  0  0  0  0  0  0  0  0
   17.3670  -12.9580   -0.4660 H   0  0  0  0  0  0  0  0  0  0  0  0
   19.3580  -13.6580   -0.2360 C   0  0  0  0  0  0  0  0  0  0  0  0
   23.5500  -13.6440   -1.2810 C   0  0  0  0  0  0  0  0  0  0  0  0
   22.9380  -12.8320   -0.2800 O   0  0  0  0  0  0  0  0  0  0  0  0
   22.7000  -11.5260   -0.5320 C   0  0  0  0  0  0  0  0  0  0  0  0
   21.7320  -11.0420   -1.3910 C   0  0  0  0  0  0  0  0  0  0  0  0
   21.5500   -9.6600   -1.5290 C   0  0  0  0  0  0  0  0  0  0  0  0
   22.3770   -8.8330   -0.7970 C   0  0  0  0  0  0  0  0  0  0  0  0
   23.3370   -9.2940    0.0280 N   0  0  0  0  0  0  0  0  0  0  0  0
   23.4910  -10.6260    0.1520 C   0  0  0  0  0  0  0  0  0  0  0  0
   20.5080   -9.1900   -2.4270 C   0  0  0  0  0  0  0  0  0  0  0  0
   20.4440   -9.4520   -3.7480 C   0  0  0  0  0  0  0  0  0  0  0  0
   19.3930   -8.9790   -4.6530 C   0  0  0  0  0  0  0  0  0  0  0  0
   19.6650   -8.9240   -6.0200 C   0  0  0  0  0  0  0  0  0  0  0  0
   18.6850   -8.4810   -6.8900 C   0  0  0  0  0  0  0  0  0  0  0  0
   17.4610   -8.0950   -6.4790 N   0  0  0  0  0  0  0  0  0  0  0  0
   17.2070   -8.1520   -5.1550 C   0  0  0  0  0  0  0  0  0  0  0  0
   18.1350   -8.5830   -4.2300 C   0  0  0  0  0  0  0  0  0  0  0  0
  1 17  1  1  0  0  0
  1  6  1  0  0  0  0
  2  5  1  0  0  0  0
  2  1  1  0  0  0  0
  3  2  1  0  0  0  0
  4  2  1  0  0  0  0
  7  6  1  0  0  0  0
  7 16  2  0  0  0  0
  8 13  1  0  0  0  0
  8  7  1  0  0  0  0
  9  8  2  0  0  0  0
 10 11  2  0  0  0  0
 10  9  1  0  0  0  0
 11 12  1  0  0  0  0
 12 13  2  0  0  0  0
 13 14  1  0  0  0  0
 14 15  1  0  0  0  0
 14 16  1  0  0  0  0
 17 18  1  0  0  0  0
 19 18  1  0  0  0  0
 19 24  2  0  0  0  0
 20 19  1  0  0  0  0
 21 20  2  0  0  0  0
 21 22  1  0  0  0  0
 22 23  2  0  0  0  0
 23 24  1  0  0  0  0
 25 21  1  0  0  0  0
 26 25  2  0  0  0  0
 27 32  1  0  0  0  0
 27 26  1  0  0  0  0
 28 27  2  0  0  0  0
 29 30  2  0  0  0  0
 29 28  1  0  0  0  0
 30 31  1  0  0  0  0
 31 32  2  0  0  0  0
M  END
>  <minimizedAffinity>
-7.20272446

$$$$

 OpenBabel12271915483D

 32 35  0  0  1  0  0  0  0  0999 V2000
   25.2410  -10.1000   -2.8930 C   0  0  1  0  0  0  0  0  0  0  0  0
   25.1480  -10.8470   -4.1890 N   0  0  0  0  0  0  0  0  0  0  0  0
   25.1830  -10.2040   -4.9890 H   0  0  0  0  0  0  0  0  0  0  0  0
   25.9400  -11.4890   -4.2880 H   0  0  0  0  0  0  0  0  0  0  0  0
   24.2960  -11.4250   -4.2240 H   0  0  0  0  0  0  0  0  0  0  0  0
   24.1930   -8.9700   -2.7910 C   0  0  0  0  0  0  0  0  0  0  0  0
   22.9110   -9.3900   -2.1630 C   0  0  0  0  0  0  0  0  0  0  0  0
   21.8420  -10.0750   -2.7930 C   0  0  0  0  0  0  0  0  0  0  0  0
   21.6190  -10.5450   -4.0890 C   0  0  0  0  0  0  0  0  0  0  0  0
   20.4340  -11.2080   -4.3960 C   0  0  0  0  0  0  0  0  0  0  0  0
   19.4600  -11.3940   -3.4390 C   0  0  0  0  0  0  0  0  0  0  0  0
   19.6500  -10.9180   -2.1490 C   0  0  0  0  0  0  0  0  0  0  0  0
   20.8520  -10.2650   -1.8500 C   0  0  0  0  0  0  0  0  0  0  0  0
   21.2670   -9.6900   -0.6740 N   0  0  0  0  0  0  0  0  0  0  0  0
   20.7360   -9.6560    0.1800 H   0  0  0  0  0  0  0  0  0  0  0  0
   22.5180   -9.1590   -0.8620 C   0  0  0  0  0  0  0  0  0  0  0  0
   25.1420  -11.0940   -1.7350 C   0  0  0  0  0  0  0  0  0  0  0  0
   24.6320  -12.3020   -2.2960 O   0  0  0  0  0  0  0  0  0  0  0  0
   23.5520  -12.8950   -1.7390 C   0  0  0  0  0  0  0  0  0  0  0  0
   22.5750  -13.5840   -2.4330 C   0  0  0  0  0  0  0  0  0  0  0  0
   21.5280  -14.1990   -1.7340 C   0  0  0  0  0  0  0  0  0  0  0  0
   21.5150  -14.0670   -0.3610 C   0  0  0  0  0  0  0  0  0  0  0  0
   22.4510  -13.3800    0.3220 N   0  0  0  0  0  0  0  0  0  0  0  0
   23.4530  -12.8030   -0.3670 C   0  0  0  0  0  0  0  0  0  0  0  0
   20.5300  -14.9310   -2.4960 C   0  0  0  0  0  0  0  0  0  0  0  0
   19.2050  -14.9230   -2.2510 C   0  0  0  0  0  0  0  0  0  0  0  0
   18.1990  -15.6610   -3.0200 C   0  0  0  0  0  0  0  0  0  0  0  0
   18.6160  -16.7280   -3.8150 C   0  0  0  0  0  0  0  0  0  0  0  0
   17.6820  -17.4370   -4.5470 C   0  0  0  0  0  0  0  0  0  0  0  0
   16.3650  -17.1450   -4.5310 N   0  0  0  0  0  0  0  0  0  0  0  0
   15.9700  -16.1120   -3.7600 C   0  0  0  0  0  0  0  0  0  0  0  0
   16.8470  -15.3620   -3.0020 C   0  0  0  0  0  0  0  0  0  0  0  0
  1  6  1  1  0  0  0
  1 17  1  0  0  0  0
  2  1  1  0  0  0  0
  3  2  1  0  0  0  0
  4  2  1  0  0  0  0
  5  2  1  0  0  0  0
  6  7  1  0  0  0  0
  7 16  2  0  0  0  0
  8  7  1  0  0  0  0
  8 13  2  0  0  0  0
  9  8  1  0  0  0  0
 10  9  2  0  0  0  0
 10 11  1  0  0  0  0
 11 12  2  0  0  0  0
 12 13  1  0  0  0  0
 13 14  1  0  0  0  0
 14 15  1  0  0  0  0
 16 14  1  0  0  0  0
 18 19  1  0  0  0  0
 18 17  1  0  0  0  0
 19 24  1  0  0  0  0
 20 19  2  0  0  0  0
 20 21  1  0  0  0  0
 21 22  2  0  0  0  0
 22 23  1  0  0  0  0
 24 23  2  0  0  0  0
 25 26  2  0  0  0  0
 25 21  1  0  0  0  0
 27 32  1  0  0  0  0
 27 26  1  0  0  0  0
 28 27  2  0  0  0  0
 29 30  2  0  0  0  0
 29 28  1  0  0  0  0
 30 31  1  0  0  0  0
 31 32  2  0  0  0  0
M  END
>  <minimizedAffinity>
-7.00063753

$$$$
