
 OpenBabel12271915443D

 27 29  0  0  1  0  0  0  0  0999 V2000
   17.5020  -13.6460   -2.0010 C   0  0  1  0  0  0  0  0  0  0  0  0
   18.3100  -13.9870   -0.8180 N   0  0  0  0  0  0  0  0  0  0  0  0
   19.2090  -14.4330   -1.1140 H   0  0  0  0  0  0  0  0  0  0  0  0
   18.9210  -12.5570   -0.4060 O   0  0  0  0  0  0  0  0  0  0  0  0
   18.5680  -11.6880   -1.5060 C   0  0  2  0  0  0  0  0  0  0  0  0
   19.8160  -10.8700   -1.7400 C   0  0  1  0  0  0  0  0  0  0  0  0
   19.5820   -9.4110   -1.4440 C   0  0  2  0  0  0  0  0  0  0  0  0
   18.3340   -8.9730   -2.0890 C   0  0  1  0  0  0  0  0  0  0  0  0
   17.1840   -9.6620   -1.3940 C   0  0  2  0  0  0  0  0  0  0  0  0
   17.3740  -11.0400   -1.0030 O   0  0  0  0  0  0  0  0  0  0  0  0
   18.1840  -12.5160   -2.6620 C   0  0  0  0  0  0  0  0  0  0  0  0
   17.4490  -14.9140   -2.7880 C   0  0  0  0  0  0  0  0  0  0  0  0
   18.6490  -15.5760   -3.1090 C   0  0  0  0  0  0  0  0  0  0  0  0
   18.6330  -16.7270   -3.8490 C   0  0  0  0  0  0  0  0  0  0  0  0
   17.4390  -17.2850   -4.2770 C   0  0  0  0  0  0  0  0  0  0  0  0
   17.5120  -18.5450   -5.0740 C   0  0  0  0  0  0  0  0  0  0  0  0
   16.2420  -16.6330   -3.9830 C   0  0  0  0  0  0  0  0  0  0  0  0
   16.2510  -15.4580   -3.2360 C   0  0  0  0  0  0  0  0  0  0  0  0
   20.6960   -8.6860   -2.0400 O   0  0  0  0  0  0  0  0  0  0  0  0
   20.5480   -7.7580   -1.7850 H   0  0  0  0  0  0  0  0  0  0  0  0
   20.9270  -11.3690   -0.9540 O   0  0  0  0  0  0  0  0  0  0  0  0
   20.6720  -11.2560   -0.0180 H   0  0  0  0  0  0  0  0  0  0  0  0
   18.1690   -7.5690   -1.8630 O   0  0  0  0  0  0  0  0  0  0  0  0
   17.4150   -7.4480   -1.2540 H   0  0  0  0  0  0  0  0  0  0  0  0
   15.9470   -9.5640   -2.2040 C   0  0  0  0  0  0  0  0  0  0  0  0
   16.3510   -9.2840   -3.5520 O   0  0  0  0  0  0  0  0  0  0  0  0
   15.7690   -8.5980   -3.9260 H   0  0  0  0  0  0  0  0  0  0  0  0
  1 12  1  6  0  0  0
  1  2  1  0  0  0  0
  2  4  1  0  0  0  0
  3  2  1  0  0  0  0
  5 11  1  6  0  0  0
  5 10  1  0  0  0  0
  5  4  1  0  0  0  0
  6  5  1  1  0  0  0
  6  7  1  0  0  0  0
  6 21  1  0  0  0  0
  7 19  1  6  0  0  0
  8 23  1  1  0  0  0
  8  7  1  0  0  0  0
  8  9  1  0  0  0  0
  9 25  1  6  0  0  0
  9 10  1  0  0  0  0
 11  1  1  0  0  0  0
 13 12  1  0  0  0  0
 14 13  2  0  0  0  0
 15 17  2  0  0  0  0
 15 14  1  0  0  0  0
 16 15  1  0  0  0  0
 17 18  1  0  0  0  0
 18 12  2  0  0  0  0
 19 20  1  0  0  0  0
 21 22  1  0  0  0  0
 23 24  1  0  0  0  0
 26 25  1  0  0  0  0
 27 26  1  0  0  0  0
M  END
>  <minimizedAffinity>
-8.24980354

$$$$

 OpenBabel12271915443D

 27 29  0  0  1  0  0  0  0  0999 V2000
   20.0120  -13.8960   -1.2840 C   0  0  1  0  0  0  0  0  0  0  0  0
   20.5510  -14.8640   -0.3130 N   0  0  0  0  0  0  0  0  0  0  0  0
   20.8510  -15.7370   -0.8050 H   0  0  0  0  0  0  0  0  0  0  0  0
   22.0220  -14.2740   -0.0330 O   0  0  0  0  0  0  0  0  0  0  0  0
   22.1800  -13.2290   -1.0190 C   0  0  2  0  0  0  0  0  0  0  0  0
   23.5960  -13.4090   -1.5160 C   0  0  1  0  0  0  0  0  0  0  0  0
   24.4580  -12.2250   -1.1620 C   0  0  2  0  0  0  0  0  0  0  0  0
   23.7520  -10.9810   -1.5090 C   0  0  1  0  0  0  0  0  0  0  0  0
   22.5680  -10.8430   -0.5830 C   0  0  2  0  0  0  0  0  0  0  0  0
   21.8370  -12.0460   -0.2570 O   0  0  0  0  0  0  0  0  0  0  0  0
   21.1630  -13.4070   -2.0690 C   0  0  0  0  0  0  0  0  0  0  0  0
   18.9940  -14.6730   -2.0520 C   0  0  0  0  0  0  0  0  0  0  0  0
   19.4170  -15.7160   -2.8970 C   0  0  0  0  0  0  0  0  0  0  0  0
   18.5100  -16.4310   -3.6300 C   0  0  0  0  0  0  0  0  0  0  0  0
   17.1530  -16.1660   -3.5410 C   0  0  0  0  0  0  0  0  0  0  0  0
   16.2310  -16.9970   -4.3710 C   0  0  0  0  0  0  0  0  0  0  0  0
   16.7170  -15.1250   -2.7220 C   0  0  0  0  0  0  0  0  0  0  0  0
   17.6360  -14.3890   -1.9780 C   0  0  0  0  0  0  0  0  0  0  0  0
   25.6570  -12.3280   -1.9830 O   0  0  0  0  0  0  0  0  0  0  0  0
   26.2160  -11.5860   -1.6920 H   0  0  0  0  0  0  0  0  0  0  0  0
   24.1830  -14.6290   -1.0010 O   0  0  0  0  0  0  0  0  0  0  0  0
   24.2230  -14.5250   -0.0300 H   0  0  0  0  0  0  0  0  0  0  0  0
   24.6170   -9.8730   -1.2390 O   0  0  0  0  0  0  0  0  0  0  0  0
   24.2510   -9.3830   -0.4770 H   0  0  0  0  0  0  0  0  0  0  0  0
   21.6150   -9.8310   -1.0970 C   0  0  0  0  0  0  0  0  0  0  0  0
   21.8950   -9.6660   -2.4950 O   0  0  0  0  0  0  0  0  0  0  0  0
   21.8780   -8.7170   -2.7150 H   0  0  0  0  0  0  0  0  0  0  0  0
  1 12  1  6  0  0  0
  1  2  1  0  0  0  0
  2  4  1  0  0  0  0
  3  2  1  0  0  0  0
  5 11  1  6  0  0  0
  5 10  1  0  0  0  0
  5  4  1  0  0  0  0
  6  7  1  0  0  0  0
  6  5  1  1  0  0  0
  6 21  1  0  0  0  0
  7 19  1  6  0  0  0
  8 23  1  1  0  0  0
  8  7  1  0  0  0  0
  8  9  1  0  0  0  0
  9 25  1  6  0  0  0
  9 10  1  0  0  0  0
 11  1  1  0  0  0  0
 12 18  1  0  0  0  0
 13 12  2  0  0  0  0
 14 15  2  0  0  0  0
 14 13  1  0  0  0  0
 15 17  1  0  0  0  0
 16 15  1  0  0  0  0
 17 18  2  0  0  0  0
 19 20  1  0  0  0  0
 21 22  1  0  0  0  0
 23 24  1  0  0  0  0
 26 25  1  0  0  0  0
 27 26  1  0  0  0  0
M  END
>  <minimizedAffinity>
-8.21598148

$$$$

 OpenBabel12271915443D

 27 29  0  0  1  0  0  0  0  0999 V2000
   21.7840  -12.9770   -0.8200 C   0  0  1  0  0  0  0  0  0  0  0  0
   22.4270  -13.8640    0.1640 N   0  0  0  0  0  0  0  0  0  0  0  0
   22.7600  -14.7390   -0.3040 H   0  0  0  0  0  0  0  0  0  0  0  0
   23.8690  -13.1730    0.3460 O   0  0  0  0  0  0  0  0  0  0  0  0
   23.9150  -12.1660   -0.6900 C   0  0  2  0  0  0  0  0  0  0  0  0
   25.3140  -12.2800   -1.2470 C   0  0  1  0  0  0  0  0  0  0  0  0
   26.1150  -11.0300   -0.9860 C   0  0  2  0  0  0  0  0  0  0  0  0
   25.3150   -9.8500   -1.3520 C   0  0  1  0  0  0  0  0  0  0  0  0
   24.1680   -9.7430   -0.3760 C   0  0  2  0  0  0  0  0  0  0  0  0
   23.5310  -10.9730    0.0360 O   0  0  0  0  0  0  0  0  0  0  0  0
   22.8640  -12.4540   -1.6810 C   0  0  0  0  0  0  0  0  0  0  0  0
   20.7840  -13.8510   -1.5040 C   0  0  0  0  0  0  0  0  0  0  0  0
   21.1790  -14.6020   -2.6270 C   0  0  0  0  0  0  0  0  0  0  0  0
   20.2790  -15.3930   -3.2870 C   0  0  0  0  0  0  0  0  0  0  0  0
   18.9670  -15.4970   -2.8550 C   0  0  0  0  0  0  0  0  0  0  0  0
   18.0530  -16.3870   -3.6300 C   0  0  0  0  0  0  0  0  0  0  0  0
   18.5540  -14.7470   -1.7550 C   0  0  0  0  0  0  0  0  0  0  0  0
   19.4630  -13.9340   -1.0820 C   0  0  0  0  0  0  0  0  0  0  0  0
   27.2790  -11.0960   -1.8590 O   0  0  0  0  0  0  0  0  0  0  0  0
   27.8020  -10.3090   -1.6280 H   0  0  0  0  0  0  0  0  0  0  0  0
   26.0020  -13.4370   -0.7090 O   0  0  0  0  0  0  0  0  0  0  0  0
   26.0800  -13.2860    0.2540 H   0  0  0  0  0  0  0  0  0  0  0  0
   26.1180   -8.6790   -1.1710 O   0  0  0  0  0  0  0  0  0  0  0  0
   25.7570   -8.1780   -0.4140 H   0  0  0  0  0  0  0  0  0  0  0  0
   23.1300   -8.8170   -0.8860 C   0  0  0  0  0  0  0  0  0  0  0  0
   23.6140   -7.4840   -0.6670 O   0  0  0  0  0  0  0  0  0  0  0  0
   22.8880   -6.9310   -0.3240 H   0  0  0  0  0  0  0  0  0  0  0  0
  1 12  1  6  0  0  0
  1  2  1  0  0  0  0
  2  4  1  0  0  0  0
  3  2  1  0  0  0  0
  5 11  1  6  0  0  0
  5 10  1  0  0  0  0
  5  4  1  0  0  0  0
  6  7  1  0  0  0  0
  6 21  1  0  0  0  0
  6  5  1  1  0  0  0
  7 19  1  6  0  0  0
  8 23  1  1  0  0  0
  8  7  1  0  0  0  0
  8  9  1  0  0  0  0
  9 25  1  6  0  0  0
  9 10  1  0  0  0  0
 11  1  1  0  0  0  0
 12 18  1  0  0  0  0
 13 12  2  0  0  0  0
 14 15  2  0  0  0  0
 14 13  1  0  0  0  0
 15 17  1  0  0  0  0
 16 15  1  0  0  0  0
 17 18  2  0  0  0  0
 19 20  1  0  0  0  0
 21 22  1  0  0  0  0
 23 24  1  0  0  0  0
 25 26  1  0  0  0  0
 26 27  1  0  0  0  0
M  END
>  <minimizedAffinity>
-7.94270754

$$$$

 OpenBabel12271915443D

 27 29  0  0  1  0  0  0  0  0999 V2000
   21.4780  -13.9580   -0.7240 C   0  0  1  0  0  0  0  0  0  0  0  0
   20.8370  -13.7010    0.5760 N   0  0  0  0  0  0  0  0  0  0  0  0
   20.9210  -12.6880    0.8250 H   0  0  0  0  0  0  0  0  0  0  0  0
   19.2770  -13.6840    0.1830 O   0  0  0  0  0  0  0  0  0  0  0  0
   19.2740  -13.7050   -1.2620 C   0  0  2  0  0  0  0  0  0  0  0  0
   18.2020  -12.7080   -1.6390 C   0  0  1  0  0  0  0  0  0  0  0  0
   17.0460  -13.3790   -2.3350 C   0  0  2  0  0  0  0  0  0  0  0  0
   17.5590  -14.2770   -3.3830 C   0  0  1  0  0  0  0  0  0  0  0  0
   18.2740  -15.4220   -2.7060 C   0  0  2  0  0  0  0  0  0  0  0  0
   19.0690  -15.1110   -1.5400 O   0  0  0  0  0  0  0  0  0  0  0  0
   20.6150  -13.3350   -1.7470 C   0  0  0  0  0  0  0  0  0  0  0  0
   22.8410  -13.3630   -0.5860 C   0  0  0  0  0  0  0  0  0  0  0  0
   23.9720  -14.1870   -0.7450 C   0  0  0  0  0  0  0  0  0  0  0  0
   25.2330  -13.6750   -0.6010 C   0  0  0  0  0  0  0  0  0  0  0  0
   25.4310  -12.3330   -0.3220 C   0  0  0  0  0  0  0  0  0  0  0  0
   26.8400  -11.8570   -0.1870 C   0  0  0  0  0  0  0  0  0  0  0  0
   24.3230  -11.5060   -0.1440 C   0  0  0  0  0  0  0  0  0  0  0  0
   23.0360  -12.0210   -0.2820 C   0  0  0  0  0  0  0  0  0  0  0  0
   16.2730  -12.3180   -2.9660 O   0  0  0  0  0  0  0  0  0  0  0  0
   15.5070  -12.7730   -3.3570 H   0  0  0  0  0  0  0  0  0  0  0  0
   17.7330  -11.9780   -0.4790 O   0  0  0  0  0  0  0  0  0  0  0  0
   17.3240  -12.6390    0.1140 H   0  0  0  0  0  0  0  0  0  0  0  0
   16.4470  -14.8440   -4.0840 O   0  0  0  0  0  0  0  0  0  0  0  0
   16.4050  -15.7950   -3.8650 H   0  0  0  0  0  0  0  0  0  0  0  0
   19.1180  -16.1590   -3.6750 C   0  0  0  0  0  0  0  0  0  0  0  0
   18.2700  -17.1160   -4.3270 O   0  0  0  0  0  0  0  0  0  0  0  0
   18.7390  -17.9670   -4.3960 H   0  0  0  0  0  0  0  0  0  0  0  0
  1 12  1  1  0  0  0
  1  2  1  0  0  0  0
  2  3  1  0  0  0  0
  4  2  1  0  0  0  0
  5 11  1  6  0  0  0
  5  4  1  0  0  0  0
  6  5  1  1  0  0  0
  6 21  1  0  0  0  0
  7 19  1  6  0  0  0
  7  6  1  0  0  0  0
  8 23  1  1  0  0  0
  8  9  1  0  0  0  0
  8  7  1  0  0  0  0
  9 25  1  6  0  0  0
  9 10  1  0  0  0  0
 10  5  1  0  0  0  0
 11  1  1  0  0  0  0
 12 18  2  0  0  0  0
 13 14  2  0  0  0  0
 13 12  1  0  0  0  0
 14 15  1  0  0  0  0
 15 16  1  0  0  0  0
 15 17  2  0  0  0  0
 18 17  1  0  0  0  0
 20 19  1  0  0  0  0
 21 22  1  0  0  0  0
 23 24  1  0  0  0  0
 26 25  1  0  0  0  0
 27 26  1  0  0  0  0
M  END
>  <minimizedAffinity>
-7.63126659

$$$$

 OpenBabel12271915443D

 27 29  0  0  1  0  0  0  0  0999 V2000
   20.1760  -13.0860   -3.1690 C   0  0  1  0  0  0  0  0  0  0  0  0
   20.0100  -12.1900   -4.3260 N   0  0  0  0  0  0  0  0  0  0  0  0
   19.0100  -11.8950   -4.4110 H   0  0  0  0  0  0  0  0  0  0  0  0
   20.5810  -10.7980   -3.7550 O   0  0  0  0  0  0  0  0  0  0  0  0
   20.7680  -11.0420   -2.3430 C   0  0  2  0  0  0  0  0  0  0  0  0
   20.2570   -9.7820   -1.6850 C   0  0  1  0  0  0  0  0  0  0  0  0
   21.3630   -9.0410   -0.9780 C   0  0  2  0  0  0  0  0  0  0  0  0
   22.1410   -9.9850   -0.1600 C   0  0  1  0  0  0  0  0  0  0  0  0
   22.8810  -10.9120   -1.0950 C   0  0  2  0  0  0  0  0  0  0  0  0
   22.1810  -11.3570   -2.2780 O   0  0  0  0  0  0  0  0  0  0  0  0
   20.0140  -12.2490   -1.9640 C   0  0  0  0  0  0  0  0  0  0  0  0
   19.1330  -14.1370   -3.3660 C   0  0  0  0  0  0  0  0  0  0  0  0
   17.7770  -13.7610   -3.4180 C   0  0  0  0  0  0  0  0  0  0  0  0
   16.7980  -14.7040   -3.5750 C   0  0  0  0  0  0  0  0  0  0  0  0
   17.1140  -16.0460   -3.7110 C   0  0  0  0  0  0  0  0  0  0  0  0
   15.9850  -17.0070   -3.8830 C   0  0  0  0  0  0  0  0  0  0  0  0
   18.4500  -16.4380   -3.6440 C   0  0  0  0  0  0  0  0  0  0  0  0
   19.4520  -15.4850   -3.4790 C   0  0  0  0  0  0  0  0  0  0  0  0
   20.7160   -8.0790   -0.0950 O   0  0  0  0  0  0  0  0  0  0  0  0
   21.4520   -7.5810    0.3020 H   0  0  0  0  0  0  0  0  0  0  0  0
   19.6060   -8.9140   -2.6450 O   0  0  0  0  0  0  0  0  0  0  0  0
   20.2950   -8.6510   -3.2880 H   0  0  0  0  0  0  0  0  0  0  0  0
   23.1360   -9.2520    0.5630 O   0  0  0  0  0  0  0  0  0  0  0  0
   24.0100   -9.4870    0.1960 H   0  0  0  0  0  0  0  0  0  0  0  0
   23.3850  -12.1000   -0.3660 C   0  0  0  0  0  0  0  0  0  0  0  0
   24.5830  -11.6960    0.3120 O   0  0  0  0  0  0  0  0  0  0  0  0
   25.2590  -12.3900    0.2090 H   0  0  0  0  0  0  0  0  0  0  0  0
  1 12  1  6  0  0  0
  1 11  1  0  0  0  0
  2  4  1  0  0  0  0
  2  1  1  0  0  0  0
  3  2  1  0  0  0  0
  4  5  1  0  0  0  0
  5 10  1  0  0  0  0
  5 11  1  1  0  0  0
  6  5  1  6  0  0  0
  6  7  1  0  0  0  0
  7  8  1  0  0  0  0
  7 19  1  1  0  0  0
  8 23  1  6  0  0  0
  9 25  1  1  0  0  0
  9  8  1  0  0  0  0
 10  9  1  0  0  0  0
 13 12  1  0  0  0  0
 14 13  2  0  0  0  0
 15 17  2  0  0  0  0
 15 14  1  0  0  0  0
 16 15  1  0  0  0  0
 17 18  1  0  0  0  0
 18 12  2  0  0  0  0
 19 20  1  0  0  0  0
 21  6  1  0  0  0  0
 22 21  1  0  0  0  0
 24 23  1  0  0  0  0
 25 26  1  0  0  0  0
 27 26  1  0  0  0  0
M  END
>  <minimizedAffinity>
-7.54852152

$$$$

 OpenBabel12271915443D

 27 29  0  0  1  0  0  0  0  0999 V2000
   21.9480  -12.3600   -1.7130 C   0  0  1  0  0  0  0  0  0  0  0  0
   22.3780  -12.8120   -0.3790 N   0  0  0  0  0  0  0  0  0  0  0  0
   22.7410  -13.7920   -0.4310 H   0  0  0  0  0  0  0  0  0  0  0  0
   23.8020  -12.0790   -0.2200 O   0  0  0  0  0  0  0  0  0  0  0  0
   24.0650  -11.5240   -1.5290 C   0  0  2  0  0  0  0  0  0  0  0  0
   25.5300  -11.8130   -1.7600 C   0  0  1  0  0  0  0  0  0  0  0  0
   26.3360  -10.5430   -1.8420 C   0  0  2  0  0  0  0  0  0  0  0  0
   25.6640   -9.5930   -2.7440 C   0  0  1  0  0  0  0  0  0  0  0  0
   24.3790   -9.1520   -2.0840 C   0  0  2  0  0  0  0  0  0  0  0  0
   23.6260  -10.1530   -1.3660 O   0  0  0  0  0  0  0  0  0  0  0  0
   23.1770  -12.1740   -2.5080 C   0  0  0  0  0  0  0  0  0  0  0  0
   21.0320  -13.4400   -2.1880 C   0  0  0  0  0  0  0  0  0  0  0  0
   20.0490  -13.1350   -3.1490 C   0  0  0  0  0  0  0  0  0  0  0  0
   19.1810  -14.0980   -3.5870 C   0  0  0  0  0  0  0  0  0  0  0  0
   19.2620  -15.3990   -3.1180 C   0  0  0  0  0  0  0  0  0  0  0  0
   18.2790  -16.3870   -3.6530 C   0  0  0  0  0  0  0  0  0  0  0  0
   20.2170  -15.7140   -2.1530 C   0  0  0  0  0  0  0  0  0  0  0  0
   21.1000  -14.7380   -1.6980 C   0  0  0  0  0  0  0  0  0  0  0  0
   27.6220  -10.9070   -2.4200 O   0  0  0  0  0  0  0  0  0  0  0  0
   28.1380  -10.0820   -2.4080 H   0  0  0  0  0  0  0  0  0  0  0  0
   26.0640  -12.6790   -0.7280 O   0  0  0  0  0  0  0  0  0  0  0  0
   25.9910  -12.1830    0.1110 H   0  0  0  0  0  0  0  0  0  0  0  0
   26.4820   -8.4250   -2.8710 O   0  0  0  0  0  0  0  0  0  0  0  0
   26.0270   -7.6870   -2.4230 H   0  0  0  0  0  0  0  0  0  0  0  0
   23.4840   -8.4960   -3.0660 C   0  0  0  0  0  0  0  0  0  0  0  0
   23.9060   -8.9260   -4.3690 O   0  0  0  0  0  0  0  0  0  0  0  0
   23.9110   -8.1610   -4.9730 H   0  0  0  0  0  0  0  0  0  0  0  0
  1 12  1  6  0  0  0
  1  2  1  0  0  0  0
  2  4  1  0  0  0  0
  3  2  1  0  0  0  0
  5 11  1  6  0  0  0
  5 10  1  0  0  0  0
  5  4  1  0  0  0  0
  6  5  1  1  0  0  0
  6 21  1  0  0  0  0
  7 19  1  6  0  0  0
  7  6  1  0  0  0  0
  8 23  1  1  0  0  0
  8  9  1  0  0  0  0
  8  7  1  0  0  0  0
  9 25  1  6  0  0  0
  9 10  1  0  0  0  0
 11  1  1  0  0  0  0
 12 18  2  0  0  0  0
 13 12  1  0  0  0  0
 14 13  2  0  0  0  0
 14 15  1  0  0  0  0
 15 17  2  0  0  0  0
 16 15  1  0  0  0  0
 17 18  1  0  0  0  0
 19 20  1  0  0  0  0
 21 22  1  0  0  0  0
 23 24  1  0  0  0  0
 26 25  1  0  0  0  0
 27 26  1  0  0  0  0
M  END
>  <minimizedAffinity>
-7.35919476

$$$$

 OpenBabel12271915443D

 27 29  0  0  1  0  0  0  0  0999 V2000
   20.9890  -12.7270   -2.5260 C   0  0  1  0  0  0  0  0  0  0  0  0
   20.6160  -12.1280   -1.2330 N   0  0  0  0  0  0  0  0  0  0  0  0
   20.4290  -11.1060   -1.3500 H   0  0  0  0  0  0  0  0  0  0  0  0
   19.0840  -12.5960   -1.0770 O   0  0  0  0  0  0  0  0  0  0  0  0
   18.7560  -13.1750   -2.3600 C   0  0  2  0  0  0  0  0  0  0  0  0
   17.3680  -12.6540   -2.6510 C   0  0  1  0  0  0  0  0  0  0  0  0
   16.3560  -13.7700   -2.6870 C   0  0  2  0  0  0  0  0  0  0  0  0
   16.8720  -14.8730   -3.5130 C   0  0  1  0  0  0  0  0  0  0  0  0
   18.0470  -15.4870   -2.7910 C   0  0  2  0  0  0  0  0  0  0  0  0
   18.9480  -14.5880   -2.1070 O   0  0  0  0  0  0  0  0  0  0  0  0
   19.7620  -12.7470   -3.3470 C   0  0  0  0  0  0  0  0  0  0  0  0
   22.0870  -11.8510   -3.0330 C   0  0  0  0  0  0  0  0  0  0  0  0
   21.7780  -10.8020   -3.9190 C   0  0  0  0  0  0  0  0  0  0  0  0
   22.7660   -9.9980   -4.4180 C   0  0  0  0  0  0  0  0  0  0  0  0
   24.0880  -10.1760   -4.0460 C   0  0  0  0  0  0  0  0  0  0  0  0
   25.1020   -9.2500   -4.6340 C   0  0  0  0  0  0  0  0  0  0  0  0
   24.4150  -11.2210   -3.1830 C   0  0  0  0  0  0  0  0  0  0  0  0
   23.4150  -12.0480   -2.6760 C   0  0  0  0  0  0  0  0  0  0  0  0
   15.1640  -13.2260   -3.3230 O   0  0  0  0  0  0  0  0  0  0  0  0
   14.5140  -13.9490   -3.2800 H   0  0  0  0  0  0  0  0  0  0  0  0
   16.9710  -11.6480   -1.6860 O   0  0  0  0  0  0  0  0  0  0  0  0
   16.9400  -12.0980   -0.8190 H   0  0  0  0  0  0  0  0  0  0  0  0
   15.8670  -15.8890   -3.6000 O   0  0  0  0  0  0  0  0  0  0  0  0
   16.1790  -16.6660   -3.0970 H   0  0  0  0  0  0  0  0  0  0  0  0
   18.8350  -16.3450   -3.7070 C   0  0  0  0  0  0  0  0  0  0  0  0
   17.9930  -17.4460   -4.0770 O   0  0  0  0  0  0  0  0  0  0  0  0
   18.5110  -18.2710   -4.0490 H   0  0  0  0  0  0  0  0  0  0  0  0
  1 12  1  6  0  0  0
  1  2  1  0  0  0  0
  2  4  1  0  0  0  0
  3  2  1  0  0  0  0
  5 11  1  6  0  0  0
  5 10  1  0  0  0  0
  5  4  1  0  0  0  0
  6  5  1  1  0  0  0
  6 21  1  0  0  0  0
  7 19  1  6  0  0  0
  7  6  1  0  0  0  0
  8 23  1  1  0  0  0
  8  9  1  0  0  0  0
  8  7  1  0  0  0  0
  9 25  1  6  0  0  0
  9 10  1  0  0  0  0
 11  1  1  0  0  0  0
 12 18  1  0  0  0  0
 13 12  2  0  0  0  0
 14 15  2  0  0  0  0
 14 13  1  0  0  0  0
 15 17  1  0  0  0  0
 16 15  1  0  0  0  0
 17 18  2  0  0  0  0
 19 20  1  0  0  0  0
 21 22  1  0  0  0  0
 23 24  1  0  0  0  0
 26 27  1  0  0  0  0
 26 25  1  0  0  0  0
M  END
>  <minimizedAffinity>
-7.1905427

$$$$

 OpenBabel12271915443D

 27 29  0  0  1  0  0  0  0  0999 V2000
   19.4340  -13.1290   -2.0850 C   0  0  1  0  0  0  0  0  0  0  0  0
   20.8560  -13.5120   -2.1090 N   0  0  0  0  0  0  0  0  0  0  0  0
   21.1310  -13.8130   -3.0720 H   0  0  0  0  0  0  0  0  0  0  0  0
   21.5880  -12.0800   -2.1280 O   0  0  0  0  0  0  0  0  0  0  0  0
   20.5150  -11.1330   -2.3340 C   0  0  2  0  0  0  0  0  0  0  0  0
   21.0810  -10.1540   -3.3360 C   0  0  1  0  0  0  0  0  0  0  0  0
   21.2250   -8.7770   -2.7390 C   0  0  2  0  0  0  0  0  0  0  0  0
   19.9830   -8.4140   -2.0370 C   0  0  1  0  0  0  0  0  0  0  0  0
   19.8520   -9.3100   -0.8280 C   0  0  2  0  0  0  0  0  0  0  0  0
   20.2410  -10.6930   -0.9820 O   0  0  0  0  0  0  0  0  0  0  0  0
   19.3310  -11.8570   -2.8270 C   0  0  0  0  0  0  0  0  0  0  0  0
   18.7290  -14.2920   -2.7020 C   0  0  0  0  0  0  0  0  0  0  0  0
   17.3350  -14.2340   -2.8870 C   0  0  0  0  0  0  0  0  0  0  0  0
   16.6590  -15.2930   -3.4290 C   0  0  0  0  0  0  0  0  0  0  0  0
   17.3290  -16.4360   -3.8330 C   0  0  0  0  0  0  0  0  0  0  0  0
   16.5150  -17.5420   -4.4200 C   0  0  0  0  0  0  0  0  0  0  0  0
   18.7080  -16.5180   -3.6420 C   0  0  0  0  0  0  0  0  0  0  0  0
   19.4010  -15.4470   -3.0850 C   0  0  0  0  0  0  0  0  0  0  0  0
   21.4170   -7.8620   -3.8560 O   0  0  0  0  0  0  0  0  0  0  0  0
   21.5630   -6.9950   -3.4380 H   0  0  0  0  0  0  0  0  0  0  0  0
   22.3540  -10.6100   -3.8560 O   0  0  0  0  0  0  0  0  0  0  0  0
   22.9670  -10.6390   -3.0950 H   0  0  0  0  0  0  0  0  0  0  0  0
   20.1100   -7.0760   -1.5450 O   0  0  0  0  0  0  0  0  0  0  0  0
   20.1640   -7.1160   -0.5700 H   0  0  0  0  0  0  0  0  0  0  0  0
   18.4740   -9.2600   -0.2860 C   0  0  0  0  0  0  0  0  0  0  0  0
   17.6770   -8.5380   -1.2360 O   0  0  0  0  0  0  0  0  0  0  0  0
   17.0950   -7.9180   -0.7610 H   0  0  0  0  0  0  0  0  0  0  0  0
  1 12  1  6  0  0  0
  2  1  1  0  0  0  0
  3  2  1  0  0  0  0
  4  2  1  0  0  0  0
  5 11  1  6  0  0  0
  5  4  1  0  0  0  0
  5 10  1  0  0  0  0
  6  7  1  0  0  0  0
  6  5  1  1  0  0  0
  7 19  1  6  0  0  0
  7  8  1  0  0  0  0
  8 23  1  1  0  0  0
  8  9  1  0  0  0  0
  9 25  1  6  0  0  0
 10  9  1  0  0  0  0
 11  1  1  0  0  0  0
 13 12  1  0  0  0  0
 14 13  2  0  0  0  0
 15 17  2  0  0  0  0
 15 14  1  0  0  0  0
 16 15  1  0  0  0  0
 17 18  1  0  0  0  0
 18 12  2  0  0  0  0
 19 20  1  0  0  0  0
 21  6  1  0  0  0  0
 21 22  1  0  0  0  0
 23 24  1  0  0  0  0
 26 27  1  0  0  0  0
 26 25  1  0  0  0  0
M  END
>  <minimizedAffinity>
-7.02734661

$$$$

 OpenBabel12271915443D

 27 29  0  0  1  0  0  0  0  0999 V2000
   23.8220  -11.6640   -0.2680 C   0  0  1  0  0  0  0  0  0  0  0  0
   22.9390  -10.5390    0.0840 N   0  0  0  0  0  0  0  0  0  0  0  0
   23.1630   -9.7070   -0.5090 H   0  0  0  0  0  0  0  0  0  0  0  0
   21.5670  -10.9470   -0.6500 O   0  0  0  0  0  0  0  0  0  0  0  0
   21.9250  -12.0840   -1.4680 C   0  0  2  0  0  0  0  0  0  0  0  0
   21.2110  -11.8310   -2.7750 C   0  0  1  0  0  0  0  0  0  0  0  0
   20.1570  -12.8760   -3.0380 C   0  0  2  0  0  0  0  0  0  0  0  0
   20.7230  -14.2140   -2.8020 C   0  0  1  0  0  0  0  0  0  0  0  0
   20.9930  -14.3520   -1.3230 C   0  0  2  0  0  0  0  0  0  0  0  0
   21.5130  -13.1940   -0.6330 O   0  0  0  0  0  0  0  0  0  0  0  0
   23.3910  -12.1320   -1.6000 C   0  0  0  0  0  0  0  0  0  0  0  0
   25.1980  -11.0860   -0.2040 C   0  0  0  0  0  0  0  0  0  0  0  0
   26.2870  -11.9300    0.0840 C   0  0  0  0  0  0  0  0  0  0  0  0
   27.5550  -11.4250    0.1720 C   0  0  0  0  0  0  0  0  0  0  0  0
   27.8050  -10.0800   -0.0450 C   0  0  0  0  0  0  0  0  0  0  0  0
   29.2190   -9.6140    0.0650 C   0  0  0  0  0  0  0  0  0  0  0  0
   26.7360   -9.2260   -0.3140 C   0  0  0  0  0  0  0  0  0  0  0  0
   25.4410   -9.7320   -0.3980 C   0  0  0  0  0  0  0  0  0  0  0  0
   19.8030  -12.7590   -4.4460 O   0  0  0  0  0  0  0  0  0  0  0  0
   19.0840  -13.4030   -4.5710 H   0  0  0  0  0  0  0  0  0  0  0  0
   20.6230  -10.5070   -2.8060 O   0  0  0  0  0  0  0  0  0  0  0  0
   19.9520  -10.4890   -2.0960 H   0  0  0  0  0  0  0  0  0  0  0  0
   19.7320  -15.1940   -3.1320 O   0  0  0  0  0  0  0  0  0  0  0  0
   19.4420  -15.6210   -2.3020 H   0  0  0  0  0  0  0  0  0  0  0  0
   21.8860  -15.5040   -1.0580 C   0  0  0  0  0  0  0  0  0  0  0  0
   22.6720  -15.7040   -2.2420 O   0  0  0  0  0  0  0  0  0  0  0  0
   22.7200  -16.6580   -2.4380 H   0  0  0  0  0  0  0  0  0  0  0  0
  1 12  1  6  0  0  0
  1  2  1  0  0  0  0
  3  2  1  0  0  0  0
  4  2  1  0  0  0  0
  5 11  1  6  0  0  0
  5  4  1  0  0  0  0
  5 10  1  0  0  0  0
  6  5  1  1  0  0  0
  7 19  1  6  0  0  0
  7  8  1  0  0  0  0
  7  6  1  0  0  0  0
  8 23  1  1  0  0  0
  8  9  1  0  0  0  0
  9 25  1  6  0  0  0
  9 10  1  0  0  0  0
 11  1  1  0  0  0  0
 12 13  2  0  0  0  0
 13 14  1  0  0  0  0
 15 16  1  0  0  0  0
 15 14  2  0  0  0  0
 17 15  1  0  0  0  0
 18 17  2  0  0  0  0
 18 12  1  0  0  0  0
 20 19  1  0  0  0  0
 21  6  1  0  0  0  0
 21 22  1  0  0  0  0
 23 24  1  0  0  0  0
 26 25  1  0  0  0  0
 27 26  1  0  0  0  0
M  END
>  <minimizedAffinity>
-6.86593962

$$$$
