
 OpenBabel12271915513D

 27 29  0  0  1  0  0  0  0  0999 V2000
   21.4110  -14.2890   -1.8730 C   0  0  1  0  0  0  0  0  0  0  0  0
   20.5100  -14.8040   -0.8500 N   0  0  0  0  0  0  0  0  0  0  0  0
   20.7260  -14.6500    0.1940 H   0  0  0  0  0  0  0  0  0  0  0  0
   19.1720  -14.1010   -1.1410 O   0  0  0  0  0  0  0  0  0  0  0  0
   19.2750  -13.9080   -2.6090 C   0  0  2  0  0  0  0  0  0  0  0  0
   18.1550  -13.0310   -3.0780 C   0  0  1  0  0  0  0  0  0  0  0  0
   16.8470  -13.6650   -2.6680 C   0  0  2  0  0  0  0  0  0  0  0  0
   16.7290  -15.0630   -3.2660 C   0  0  1  0  0  0  0  0  0  0  0  0
   17.9860  -15.9010   -3.1310 C   0  0  2  0  0  0  0  0  0  0  0  0
   19.2060  -15.1580   -3.3500 O   0  0  0  0  0  0  0  0  0  0  0  0
   20.6410  -13.3860   -2.8020 C   0  0  0  0  0  0  0  0  0  0  0  0
   22.6490  -13.6600   -1.3030 C   0  0  0  0  0  0  0  0  0  0  0  0
   23.8090  -14.4170   -1.1910 C   0  0  0  0  0  0  0  0  0  0  0  0
   24.9790  -13.8410   -0.6930 C   0  0  0  0  0  0  0  0  0  0  0  0
   24.9950  -12.4970   -0.3200 C   0  0  0  0  0  0  0  0  0  0  0  0
   26.2680  -11.9230    0.2140 C   0  0  0  0  0  0  0  0  0  0  0  0
   23.8330  -11.7460   -0.4200 C   0  0  0  0  0  0  0  0  0  0  0  0
   22.6660  -12.3100   -0.9180 C   0  0  0  0  0  0  0  0  0  0  0  0
   15.7280  -12.8810   -3.1730 O   0  0  0  0  0  0  0  0  0  0  0  0
   14.9560  -13.4680   -3.0810 H   0  0  0  0  0  0  0  0  0  0  0  0
   18.2910  -11.6990   -2.5090 O   0  0  0  0  0  0  0  0  0  0  0  0
   18.0050  -11.1090   -3.2230 H   0  0  0  0  0  0  0  0  0  0  0  0
   15.6450  -15.7560   -2.5780 O   0  0  0  0  0  0  0  0  0  0  0  0
   16.0140  -16.1550   -1.7700 H   0  0  0  0  0  0  0  0  0  0  0  0
   18.0030  -16.9810   -4.1880 C   0  0  0  0  0  0  0  0  0  0  0  0
   16.7260  -16.9990   -4.8790 O   0  0  0  0  0  0  0  0  0  0  0  0
   16.4220  -17.9220   -4.8980 H   0  0  0  0  0  0  0  0  0  0  0  0
  1 12  1  1  0  0  0
  1  2  1  0  0  0  0
  2  3  1  0  0  0  0
  4  2  1  0  0  0  0
  5 11  1  6  0  0  0
  5  4  1  0  0  0  0
  6  7  1  0  0  0  0
  6  5  1  1  0  0  0
  6 21  1  0  0  0  0
  7 19  1  6  0  0  0
  8  9  1  0  0  0  0
  8  7  1  0  0  0  0
  8 23  1  1  0  0  0
  9 25  1  6  0  0  0
 10  9  1  0  0  0  0
 10  5  1  0  0  0  0
 11  1  1  0  0  0  0
 12 13  2  0  0  0  0
 12 18  1  0  0  0  0
 13 14  1  0  0  0  0
 14 15  2  0  0  0  0
 15 16  1  0  0  0  0
 17 15  1  0  0  0  0
 18 17  2  0  0  0  0
 19 20  1  0  0  0  0
 22 21  1  0  0  0  0
 23 24  1  0  0  0  0
 26 25  1  0  0  0  0
 27 26  1  0  0  0  0
M  END
>  <minimizedAffinity>
-8.23224926

$$$$

 OpenBabel12271915513D

 27 29  0  0  1  0  0  0  0  0999 V2000
   19.8760  -13.9240   -2.1010 C   0  0  1  0  0  0  0  0  0  0  0  0
   20.0660  -14.0550   -0.6610 N   0  0  0  0  0  0  0  0  0  0  0  0
   19.4990  -14.7790   -0.1010 H   0  0  0  0  0  0  0  0  0  0  0  0
   21.5510  -14.4340   -0.5130 O   0  0  0  0  0  0  0  0  0  0  0  0
   22.1280  -13.7650   -1.7060 C   0  0  2  0  0  0  0  0  0  0  0  0
   23.5520  -14.1920   -1.8780 C   0  0  1  0  0  0  0  0  0  0  0  0
   24.3070  -13.8670   -0.6120 C   0  0  2  0  0  0  0  0  0  0  0  0
   24.2200  -12.3730   -0.3150 C   0  0  1  0  0  0  0  0  0  0  0  0
   22.8270  -11.7930   -0.4690 C   0  0  2  0  0  0  0  0  0  0  0  0
   22.1030  -12.3140   -1.6070 O   0  0  0  0  0  0  0  0  0  0  0  0
   21.1990  -14.1220   -2.7940 C   0  0  0  0  0  0  0  0  0  0  0  0
   18.7760  -14.7980   -2.6300 C   0  0  0  0  0  0  0  0  0  0  0  0
   17.4530  -14.4560   -2.3790 C   0  0  0  0  0  0  0  0  0  0  0  0
   16.4160  -15.2390   -2.8890 C   0  0  0  0  0  0  0  0  0  0  0  0
   16.7020  -16.3600   -3.6680 C   0  0  0  0  0  0  0  0  0  0  0  0
   15.5600  -17.1720   -4.1900 C   0  0  0  0  0  0  0  0  0  0  0  0
   18.0230  -16.7070   -3.9070 C   0  0  0  0  0  0  0  0  0  0  0  0
   19.0600  -15.9320   -3.4070 C   0  0  0  0  0  0  0  0  0  0  0  0
   25.7170  -14.1970   -0.7670 O   0  0  0  0  0  0  0  0  0  0  0  0
   26.1580  -13.7450   -0.0250 H   0  0  0  0  0  0  0  0  0  0  0  0
   23.6150  -15.6150   -2.1730 O   0  0  0  0  0  0  0  0  0  0  0  0
   24.3380  -15.6890   -2.8150 H   0  0  0  0  0  0  0  0  0  0  0  0
   24.6500  -12.1630    1.0630 O   0  0  0  0  0  0  0  0  0  0  0  0
   23.8760  -12.3010    1.6390 H   0  0  0  0  0  0  0  0  0  0  0  0
   22.9130  -10.3050   -0.7210 C   0  0  0  0  0  0  0  0  0  0  0  0
   23.1420   -9.6160    0.5360 O   0  0  0  0  0  0  0  0  0  0  0  0
   22.4980   -8.8900    0.5880 H   0  0  0  0  0  0  0  0  0  0  0  0
  1 12  1  6  0  0  0
  1  2  1  0  0  0  0
  2  4  1  0  0  0  0
  2  3  1  0  0  0  0
  5 11  1  6  0  0  0
  5 10  1  0  0  0  0
  5  4  1  0  0  0  0
  6  5  1  1  0  0  0
  6  7  1  0  0  0  0
  7 19  1  6  0  0  0
  7  8  1  0  0  0  0
  8 23  1  1  0  0  0
  9 25  1  6  0  0  0
  9  8  1  0  0  0  0
 10  9  1  0  0  0  0
 11  1  1  0  0  0  0
 12 13  1  0  0  0  0
 14 13  2  0  0  0  0
 15 14  1  0  0  0  0
 16 15  1  0  0  0  0
 17 15  2  0  0  0  0
 17 18  1  0  0  0  0
 18 12  2  0  0  0  0
 19 20  1  0  0  0  0
 21  6  1  0  0  0  0
 22 21  1  0  0  0  0
 23 24  1  0  0  0  0
 25 26  1  0  0  0  0
 26 27  1  0  0  0  0
M  END
>  <minimizedAffinity>
-8.10891819

$$$$

 OpenBabel12271915513D

 27 29  0  0  1  0  0  0  0  0999 V2000
   21.3420  -13.8700   -1.6240 C   0  0  1  0  0  0  0  0  0  0  0  0
   22.1180  -13.3510   -2.7440 N   0  0  0  0  0  0  0  0  0  0  0  0
   21.7100  -13.3600   -3.7410 H   0  0  0  0  0  0  0  0  0  0  0  0
   22.3690  -11.8770   -2.3740 O   0  0  0  0  0  0  0  0  0  0  0  0
   22.3790  -11.9620   -0.8920 C   0  0  2  0  0  0  0  0  0  0  0  0
   22.3910  -10.5820   -0.3130 C   0  0  1  0  0  0  0  0  0  0  0  0
   23.5910   -9.8450   -0.8580 C   0  0  2  0  0  0  0  0  0  0  0  0
   24.8740  -10.5920   -0.5080 C   0  0  1  0  0  0  0  0  0  0  0  0
   24.8020  -12.0880   -0.7490 C   0  0  2  0  0  0  0  0  0  0  0  0
   23.5360  -12.6770   -0.3750 O   0  0  0  0  0  0  0  0  0  0  0  0
   21.2030  -12.7950   -0.5780 C   0  0  0  0  0  0  0  0  0  0  0  0
   20.0370  -14.4790   -2.0470 C   0  0  0  0  0  0  0  0  0  0  0  0
   18.8490  -13.9660   -1.5410 C   0  0  0  0  0  0  0  0  0  0  0  0
   17.6240  -14.4980   -1.9460 C   0  0  0  0  0  0  0  0  0  0  0  0
   17.5840  -15.5380   -2.8750 C   0  0  0  0  0  0  0  0  0  0  0  0
   16.2500  -16.0810   -3.2770 C   0  0  0  0  0  0  0  0  0  0  0  0
   18.7710  -16.0580   -3.3690 C   0  0  0  0  0  0  0  0  0  0  0  0
   19.9930  -15.5320   -2.9750 C   0  0  0  0  0  0  0  0  0  0  0  0
   23.6830   -8.5210   -0.2580 O   0  0  0  0  0  0  0  0  0  0  0  0
   24.5850   -8.2180   -0.4680 H   0  0  0  0  0  0  0  0  0  0  0  0
   21.1570   -9.8890   -0.6450 O   0  0  0  0  0  0  0  0  0  0  0  0
   20.9570   -9.3720    0.1510 H   0  0  0  0  0  0  0  0  0  0  0  0
   25.9490  -10.0500   -1.3310 O   0  0  0  0  0  0  0  0  0  0  0  0
   25.9330  -10.5190   -2.1850 H   0  0  0  0  0  0  0  0  0  0  0  0
   25.8210  -12.7990    0.1110 C   0  0  0  0  0  0  0  0  0  0  0  0
   26.0580  -14.1290   -0.4220 O   0  0  0  0  0  0  0  0  0  0  0  0
   25.9890  -14.7530    0.3210 H   0  0  0  0  0  0  0  0  0  0  0  0
  1 12  1  6  0  0  0
  1 11  1  0  0  0  0
  2  4  1  0  0  0  0
  2  1  1  0  0  0  0
  3  2  1  0  0  0  0
  4  5  1  0  0  0  0
  5 11  1  1  0  0  0
  5 10  1  0  0  0  0
  6  5  1  6  0  0  0
  7  8  1  0  0  0  0
  7  6  1  0  0  0  0
  7 19  1  1  0  0  0
  8 23  1  6  0  0  0
  9  8  1  0  0  0  0
  9 10  1  0  0  0  0
  9 25  1  1  0  0  0
 12 13  2  0  0  0  0
 14 13  1  0  0  0  0
 15 14  2  0  0  0  0
 16 15  1  0  0  0  0
 17 18  2  0  0  0  0
 17 15  1  0  0  0  0
 18 12  1  0  0  0  0
 20 19  1  0  0  0  0
 21  6  1  0  0  0  0
 21 22  1  0  0  0  0
 24 23  1  0  0  0  0
 26 25  1  0  0  0  0
 26 27  1  0  0  0  0
M  END
>  <minimizedAffinity>
-7.93806124

$$$$

 OpenBabel12271915513D

 27 29  0  0  1  0  0  0  0  0999 V2000
   22.5910  -11.9080   -1.0120 C   0  0  1  0  0  0  0  0  0  0  0  0
   22.3710  -11.7880   -2.4480 N   0  0  0  0  0  0  0  0  0  0  0  0
   23.2030  -11.6400   -3.1160 H   0  0  0  0  0  0  0  0  0  0  0  0
   21.7120  -13.1230   -2.8390 O   0  0  0  0  0  0  0  0  0  0  0  0
   21.0040  -13.4610   -1.5780 C   0  0  2  0  0  0  0  0  0  0  0  0
   20.4650  -14.8550   -1.6660 C   0  0  1  0  0  0  0  0  0  0  0  0
   19.5660  -14.9450   -2.8760 C   0  0  2  0  0  0  0  0  0  0  0  0
   18.4320  -13.9290   -2.7680 C   0  0  1  0  0  0  0  0  0  0  0  0
   18.8810  -12.5480   -2.3290 C   0  0  2  0  0  0  0  0  0  0  0  0
   19.8930  -12.5660   -1.2970 O   0  0  0  0  0  0  0  0  0  0  0  0
   22.0120  -13.2130   -0.5300 C   0  0  0  0  0  0  0  0  0  0  0  0
   24.0240  -11.6970   -0.6180 C   0  0  0  0  0  0  0  0  0  0  0  0
   24.8150  -12.7960   -0.3080 C   0  0  0  0  0  0  0  0  0  0  0  0
   26.1580  -12.6220    0.0310 C   0  0  0  0  0  0  0  0  0  0  0  0
   26.7190  -11.3450    0.0430 C   0  0  0  0  0  0  0  0  0  0  0  0
   28.1600  -11.2060    0.4160 C   0  0  0  0  0  0  0  0  0  0  0  0
   25.9250  -10.2480   -0.2540 C   0  0  0  0  0  0  0  0  0  0  0  0
   24.5890  -10.4120   -0.5950 C   0  0  0  0  0  0  0  0  0  0  0  0
   18.9580  -16.2660   -2.9540 O   0  0  0  0  0  0  0  0  0  0  0  0
   18.2310  -16.1650   -3.5950 H   0  0  0  0  0  0  0  0  0  0  0  0
   21.5580  -15.8100   -1.7560 O   0  0  0  0  0  0  0  0  0  0  0  0
   21.2520  -16.5650   -1.2310 H   0  0  0  0  0  0  0  0  0  0  0  0
   17.8090  -13.8090   -4.0810 O   0  0  0  0  0  0  0  0  0  0  0  0
   18.3190  -13.1550   -4.5920 H   0  0  0  0  0  0  0  0  0  0  0  0
   17.7210  -11.8010   -1.7120 C   0  0  0  0  0  0  0  0  0  0  0  0
   16.6320  -11.7250   -2.6700 O   0  0  0  0  0  0  0  0  0  0  0  0
   16.3400  -10.7980   -2.7010 H   0  0  0  0  0  0  0  0  0  0  0  0
  1 12  1  6  0  0  0
  1 11  1  0  0  0  0
  2  1  1  0  0  0  0
  3  2  1  0  0  0  0
  4  2  1  0  0  0  0
  4  5  1  0  0  0  0
  5 10  1  0  0  0  0
  5 11  1  1  0  0  0
  6  5  1  6  0  0  0
  7 19  1  1  0  0  0
  7  8  1  0  0  0  0
  7  6  1  0  0  0  0
  8 23  1  6  0  0  0
  8  9  1  0  0  0  0
  9 25  1  1  0  0  0
  9 10  1  0  0  0  0
 12 18  2  0  0  0  0
 12 13  1  0  0  0  0
 13 14  2  0  0  0  0
 14 15  1  0  0  0  0
 15 16  1  0  0  0  0
 17 15  2  0  0  0  0
 18 17  1  0  0  0  0
 20 19  1  0  0  0  0
 21  6  1  0  0  0  0
 21 22  1  0  0  0  0
 24 23  1  0  0  0  0
 26 25  1  0  0  0  0
 27 26  1  0  0  0  0
M  END
>  <minimizedAffinity>
-7.8641305

$$$$

 OpenBabel12271915513D

 27 29  0  0  1  0  0  0  0  0999 V2000
   22.4060  -12.1830   -2.2040 C   0  0  1  0  0  0  0  0  0  0  0  0
   22.3260  -11.5120   -0.9120 N   0  0  0  0  0  0  0  0  0  0  0  0
   21.5950  -11.8180   -0.1830 H   0  0  0  0  0  0  0  0  0  0  0  0
   23.7130  -11.7440   -0.2830 O   0  0  0  0  0  0  0  0  0  0  0  0
   24.5580  -11.8260   -1.5010 C   0  0  2  0  0  0  0  0  0  0  0  0
   25.9360  -12.2740   -1.1230 C   0  0  1  0  0  0  0  0  0  0  0  0
   26.4880  -11.3100   -0.1000 C   0  0  2  0  0  0  0  0  0  0  0  0
   26.5130   -9.8950   -0.6680 C   0  0  1  0  0  0  0  0  0  0  0  0
   25.2400   -9.4970   -1.3890 C   0  0  2  0  0  0  0  0  0  0  0  0
   24.6730  -10.5540   -2.1960 O   0  0  0  0  0  0  0  0  0  0  0  0
   23.8000  -12.7210   -2.3960 C   0  0  0  0  0  0  0  0  0  0  0  0
   21.3270  -13.2090   -2.4000 C   0  0  0  0  0  0  0  0  0  0  0  0
   20.2400  -12.9090   -3.2110 C   0  0  0  0  0  0  0  0  0  0  0  0
   19.2430  -13.8600   -3.4310 C   0  0  0  0  0  0  0  0  0  0  0  0
   19.3400  -15.1250   -2.8500 C   0  0  0  0  0  0  0  0  0  0  0  0
   18.2460  -16.1110   -3.1080 C   0  0  0  0  0  0  0  0  0  0  0  0
   20.4190  -15.4190   -2.0300 C   0  0  0  0  0  0  0  0  0  0  0  0
   21.4170  -14.4790   -1.8090 C   0  0  0  0  0  0  0  0  0  0  0  0
   27.8590  -11.6670    0.2380 O   0  0  0  0  0  0  0  0  0  0  0  0
   28.2110  -10.8830    0.6980 H   0  0  0  0  0  0  0  0  0  0  0  0
   25.8950  -13.6290   -0.5960 O   0  0  0  0  0  0  0  0  0  0  0  0
   26.7060  -14.0370   -0.9360 H   0  0  0  0  0  0  0  0  0  0  0  0
   26.7160   -8.9690    0.4410 O   0  0  0  0  0  0  0  0  0  0  0  0
   25.8430   -8.7760    0.8290 H   0  0  0  0  0  0  0  0  0  0  0  0
   25.5290   -8.3830   -2.3690 C   0  0  0  0  0  0  0  0  0  0  0  0
   26.9590   -8.1360   -2.4110 O   0  0  0  0  0  0  0  0  0  0  0  0
   27.0880   -7.1770   -2.3160 H   0  0  0  0  0  0  0  0  0  0  0  0
  1 12  1  1  0  0  0
  1  2  1  0  0  0  0
  2  4  1  0  0  0  0
  2  3  1  0  0  0  0
  5 11  1  6  0  0  0
  5  4  1  0  0  0  0
  6  5  1  1  0  0  0
  6 21  1  0  0  0  0
  6  7  1  0  0  0  0
  7 19  1  6  0  0  0
  8  7  1  0  0  0  0
  8 23  1  1  0  0  0
  9 25  1  6  0  0  0
  9  8  1  0  0  0  0
 10  5  1  0  0  0  0
 10  9  1  0  0  0  0
 11  1  1  0  0  0  0
 12 18  2  0  0  0  0
 13 12  1  0  0  0  0
 14 13  2  0  0  0  0
 14 15  1  0  0  0  0
 15 17  2  0  0  0  0
 16 15  1  0  0  0  0
 17 18  1  0  0  0  0
 19 20  1  0  0  0  0
 22 21  1  0  0  0  0
 23 24  1  0  0  0  0
 26 25  1  0  0  0  0
 26 27  1  0  0  0  0
M  END
>  <minimizedAffinity>
-7.45244408

$$$$

 OpenBabel12271915513D

 27 29  0  0  1  0  0  0  0  0999 V2000
   19.4310  -12.8090   -2.4160 C   0  0  1  0  0  0  0  0  0  0  0  0
   19.4860  -12.7330   -0.9610 N   0  0  0  0  0  0  0  0  0  0  0  0
   19.0660  -13.5210   -0.3580 H   0  0  0  0  0  0  0  0  0  0  0  0
   20.9920  -12.6780   -0.6450 O   0  0  0  0  0  0  0  0  0  0  0  0
   21.5050  -12.0050   -1.8640 C   0  0  2  0  0  0  0  0  0  0  0  0
   23.0020  -12.0460   -1.8650 C   0  0  1  0  0  0  0  0  0  0  0  0
   23.4990  -11.3990   -0.5950 C   0  0  2  0  0  0  0  0  0  0  0  0
   22.9950   -9.9620   -0.5030 C   0  0  1  0  0  0  0  0  0  0  0  0
   21.5260   -9.8000   -0.8430 C   0  0  2  0  0  0  0  0  0  0  0  0
   21.0940  -10.6130   -1.9580 O   0  0  0  0  0  0  0  0  0  0  0  0
   20.8290  -12.7110   -2.9690 C   0  0  0  0  0  0  0  0  0  0  0  0
   18.6620  -13.9980   -2.9130 C   0  0  0  0  0  0  0  0  0  0  0  0
   19.3250  -15.2000   -3.1220 C   0  0  0  0  0  0  0  0  0  0  0  0
   18.6220  -16.3250   -3.5550 C   0  0  0  0  0  0  0  0  0  0  0  0
   17.2450  -16.2540   -3.7630 C   0  0  0  0  0  0  0  0  0  0  0  0
   16.5320  -17.4820   -4.2310 C   0  0  0  0  0  0  0  0  0  0  0  0
   16.5860  -15.0490   -3.5660 C   0  0  0  0  0  0  0  0  0  0  0  0
   17.2770  -13.9270   -3.1330 C   0  0  0  0  0  0  0  0  0  0  0  0
   24.9550  -11.3490   -0.5920 O   0  0  0  0  0  0  0  0  0  0  0  0
   25.1780  -10.7200    0.1170 H   0  0  0  0  0  0  0  0  0  0  0  0
   23.4640  -13.4210   -1.9670 O   0  0  0  0  0  0  0  0  0  0  0  0
   24.2490  -13.3630   -2.5340 H   0  0  0  0  0  0  0  0  0  0  0  0
   23.1980   -9.5010    0.8660 O   0  0  0  0  0  0  0  0  0  0  0  0
   22.4280   -9.7830    1.3910 H   0  0  0  0  0  0  0  0  0  0  0  0
   21.2500   -8.3790   -1.2780 C   0  0  0  0  0  0  0  0  0  0  0  0
   20.6130   -7.6570   -0.1920 O   0  0  0  0  0  0  0  0  0  0  0  0
   19.8340   -7.2090   -0.5610 H   0  0  0  0  0  0  0  0  0  0  0  0
  1 12  1  1  0  0  0
  1  2  1  0  0  0  0
  2  4  1  0  0  0  0
  2  3  1  0  0  0  0
  5 11  1  6  0  0  0
  5  4  1  0  0  0  0
  6  5  1  1  0  0  0
  6  7  1  0  0  0  0
  7 19  1  6  0  0  0
  7  8  1  0  0  0  0
  8 23  1  1  0  0  0
  9 25  1  6  0  0  0
  9  8  1  0  0  0  0
 10  5  1  0  0  0  0
 10  9  1  0  0  0  0
 11  1  1  0  0  0  0
 13 12  1  0  0  0  0
 14 13  2  0  0  0  0
 15 17  2  0  0  0  0
 15 14  1  0  0  0  0
 16 15  1  0  0  0  0
 17 18  1  0  0  0  0
 18 12  2  0  0  0  0
 19 20  1  0  0  0  0
 21  6  1  0  0  0  0
 22 21  1  0  0  0  0
 23 24  1  0  0  0  0
 25 26  1  0  0  0  0
 27 26  1  0  0  0  0
M  END
>  <minimizedAffinity>
-7.44907331

$$$$

 OpenBabel12271915513D

 27 29  0  0  1  0  0  0  0  0999 V2000
   18.2030  -12.8840   -2.9930 C   0  0  1  0  0  0  0  0  0  0  0  0
   17.9120  -12.6090   -1.5910 N   0  0  0  0  0  0  0  0  0  0  0  0
   17.5910  -13.4020   -0.9360 H   0  0  0  0  0  0  0  0  0  0  0  0
   19.2430  -12.0740   -1.0320 O   0  0  0  0  0  0  0  0  0  0  0  0
   19.8190  -11.4420   -2.2450 C   0  0  2  0  0  0  0  0  0  0  0  0
   21.2360  -11.0420   -1.9750 C   0  0  1  0  0  0  0  0  0  0  0  0
   21.2530  -10.1190   -0.7790 C   0  0  2  0  0  0  0  0  0  0  0  0
   20.3830   -8.8940   -1.0460 C   0  0  1  0  0  0  0  0  0  0  0  0
   19.0360   -9.2170   -1.6640 C   0  0  2  0  0  0  0  0  0  0  0  0
   19.0890  -10.2570   -2.6660 O   0  0  0  0  0  0  0  0  0  0  0  0
   19.6130  -12.4520   -3.3000 C   0  0  0  0  0  0  0  0  0  0  0  0
   17.9010  -14.3000   -3.3890 C   0  0  0  0  0  0  0  0  0  0  0  0
   18.9470  -15.2010   -3.5480 C   0  0  0  0  0  0  0  0  0  0  0  0
   18.6850  -16.5300   -3.8840 C   0  0  0  0  0  0  0  0  0  0  0  0
   17.3700  -16.9660   -4.0470 C   0  0  0  0  0  0  0  0  0  0  0  0
   17.1350  -18.3970   -4.4120 C   0  0  0  0  0  0  0  0  0  0  0  0
   16.3280  -16.0630   -3.9000 C   0  0  0  0  0  0  0  0  0  0  0  0
   16.5790  -14.7400   -3.5620 C   0  0  0  0  0  0  0  0  0  0  0  0
   22.6070   -9.6430   -0.5300 O   0  0  0  0  0  0  0  0  0  0  0  0
   22.4940   -8.8900    0.0780 H   0  0  0  0  0  0  0  0  0  0  0  0
   22.0530  -12.2210   -1.7360 O   0  0  0  0  0  0  0  0  0  0  0  0
   22.9000  -12.0080   -2.1560 H   0  0  0  0  0  0  0  0  0  0  0  0
   20.1510   -8.2220    0.2270 O   0  0  0  0  0  0  0  0  0  0  0  0
   19.3840   -8.6480    0.6520 H   0  0  0  0  0  0  0  0  0  0  0  0
   18.5020   -8.0080   -2.3970 C   0  0  0  0  0  0  0  0  0  0  0  0
   17.2910   -7.5440   -1.7440 O   0  0  0  0  0  0  0  0  0  0  0  0
   16.6180   -7.4230   -2.4360 H   0  0  0  0  0  0  0  0  0  0  0  0
  1 12  1  1  0  0  0
  1  2  1  0  0  0  0
  2  4  1  0  0  0  0
  2  3  1  0  0  0  0
  5 11  1  6  0  0  0
  5  4  1  0  0  0  0
  6  5  1  1  0  0  0
  6 21  1  0  0  0  0
  6  7  1  0  0  0  0
  7 19  1  6  0  0  0
  8  7  1  0  0  0  0
  8 23  1  1  0  0  0
  9 25  1  6  0  0  0
  9  8  1  0  0  0  0
 10  5  1  0  0  0  0
 10  9  1  0  0  0  0
 11  1  1  0  0  0  0
 13 12  1  0  0  0  0
 14 13  2  0  0  0  0
 15 17  2  0  0  0  0
 15 14  1  0  0  0  0
 16 15  1  0  0  0  0
 17 18  1  0  0  0  0
 18 12  2  0  0  0  0
 19 20  1  0  0  0  0
 22 21  1  0  0  0  0
 23 24  1  0  0  0  0
 25 26  1  0  0  0  0
 27 26  1  0  0  0  0
M  END
>  <minimizedAffinity>
-7.03393698

$$$$

 OpenBabel12271915513D

 27 29  0  0  1  0  0  0  0  0999 V2000
   22.7350  -12.6600   -1.3800 C   0  0  1  0  0  0  0  0  0  0  0  0
   21.7160  -12.3920   -0.3720 N   0  0  0  0  0  0  0  0  0  0  0  0
   21.9800  -11.9040    0.5520 H   0  0  0  0  0  0  0  0  0  0  0  0
   20.7080  -11.4780   -1.0920 O   0  0  0  0  0  0  0  0  0  0  0  0
   20.8630  -11.9450   -2.4920 C   0  0  2  0  0  0  0  0  0  0  0  0
   20.1190  -11.0260   -3.4100 C   0  0  1  0  0  0  0  0  0  0  0  0
   18.6740  -10.9780   -2.9730 C   0  0  2  0  0  0  0  0  0  0  0  0
   18.0690  -12.3780   -2.9980 C   0  0  1  0  0  0  0  0  0  0  0  0
   18.9540  -13.4440   -2.3810 C   0  0  2  0  0  0  0  0  0  0  0  0
   20.3560  -13.2920   -2.6980 O   0  0  0  0  0  0  0  0  0  0  0  0
   22.3230  -12.0180   -2.6800 C   0  0  0  0  0  0  0  0  0  0  0  0
   24.1180  -12.2890   -0.9310 C   0  0  0  0  0  0  0  0  0  0  0  0
   24.5040  -10.9550   -0.9410 C   0  0  0  0  0  0  0  0  0  0  0  0
   25.7750  -10.5870   -0.4970 C   0  0  0  0  0  0  0  0  0  0  0  0
   26.6600  -11.5570   -0.0250 C   0  0  0  0  0  0  0  0  0  0  0  0
   28.0140  -11.1190    0.4360 C   0  0  0  0  0  0  0  0  0  0  0  0
   26.2790  -12.8900   -0.0280 C   0  0  0  0  0  0  0  0  0  0  0  0
   25.0150  -13.2630   -0.4640 C   0  0  0  0  0  0  0  0  0  0  0  0
   17.8980  -10.1540   -3.8890 O   0  0  0  0  0  0  0  0  0  0  0  0
   16.9690  -10.3680   -3.6860 H   0  0  0  0  0  0  0  0  0  0  0  0
   20.7160   -9.7000   -3.3830 O   0  0  0  0  0  0  0  0  0  0  0  0
   20.6510   -9.3950   -4.3020 H   0  0  0  0  0  0  0  0  0  0  0  0
   16.8150  -12.3400   -2.2540 O   0  0  0  0  0  0  0  0  0  0  0  0
   17.0260  -12.4710   -1.3120 H   0  0  0  0  0  0  0  0  0  0  0  0
   18.5840  -14.8030   -2.9290 C   0  0  0  0  0  0  0  0  0  0  0  0
   19.5220  -15.7950   -2.4340 O   0  0  0  0  0  0  0  0  0  0  0  0
   19.8240  -16.3130   -3.1990 H   0  0  0  0  0  0  0  0  0  0  0  0
  1 12  1  1  0  0  0
  1  2  1  0  0  0  0
  2  3  1  0  0  0  0
  4  2  1  0  0  0  0
  5 11  1  6  0  0  0
  5  4  1  0  0  0  0
  6 21  1  0  0  0  0
  6  7  1  0  0  0  0
  6  5  1  1  0  0  0
  7 19  1  6  0  0  0
  8  7  1  0  0  0  0
  8  9  1  0  0  0  0
  8 23  1  1  0  0  0
  9 25  1  6  0  0  0
 10  5  1  0  0  0  0
 10  9  1  0  0  0  0
 11  1  1  0  0  0  0
 12 18  1  0  0  0  0
 13 12  2  0  0  0  0
 13 14  1  0  0  0  0
 14 15  2  0  0  0  0
 15 16  1  0  0  0  0
 17 15  1  0  0  0  0
 18 17  2  0  0  0  0
 19 20  1  0  0  0  0
 22 21  1  0  0  0  0
 23 24  1  0  0  0  0
 25 26  1  0  0  0  0
 27 26  1  0  0  0  0
M  END
>  <minimizedAffinity>
-6.92055893

$$$$

 OpenBabel12271915513D

 27 29  0  0  1  0  0  0  0  0999 V2000
   24.4280  -11.1060   -0.6300 C   0  0  1  0  0  0  0  0  0  0  0  0
   24.1740  -11.1090   -2.0660 N   0  0  0  0  0  0  0  0  0  0  0  0
   24.9860  -10.9780   -2.7620 H   0  0  0  0  0  0  0  0  0  0  0  0
   23.5690  -12.4990   -2.3360 O   0  0  0  0  0  0  0  0  0  0  0  0
   22.9020  -12.7670   -1.0370 C   0  0  2  0  0  0  0  0  0  0  0  0
   22.4250  -14.1860   -1.0040 C   0  0  1  0  0  0  0  0  0  0  0  0
   21.5080  -14.4100   -2.1820 C   0  0  2  0  0  0  0  0  0  0  0  0
   20.3320  -13.4400   -2.1270 C   0  0  1  0  0  0  0  0  0  0  0  0
   20.7250  -12.0100   -1.8080 C   0  0  2  0  0  0  0  0  0  0  0  0
   21.7570  -11.9020   -0.8010 O   0  0  0  0  0  0  0  0  0  0  0  0
   23.9180  -12.3930   -0.0350 C   0  0  0  0  0  0  0  0  0  0  0  0
   25.8570  -10.8020   -0.2860 C   0  0  0  0  0  0  0  0  0  0  0  0
   26.2930   -9.4830   -0.2890 C   0  0  0  0  0  0  0  0  0  0  0  0
   27.6100   -9.1770    0.0580 C   0  0  0  0  0  0  0  0  0  0  0  0
   28.4920  -10.1940    0.4270 C   0  0  0  0  0  0  0  0  0  0  0  0
   29.8950   -9.8220    0.7860 C   0  0  0  0  0  0  0  0  0  0  0  0
   28.0580  -11.5110    0.4160 C   0  0  0  0  0  0  0  0  0  0  0  0
   26.7490  -11.8230    0.0760 C   0  0  0  0  0  0  0  0  0  0  0  0
   20.9600  -15.7590   -2.1440 O   0  0  0  0  0  0  0  0  0  0  0  0
   20.2170  -15.7400   -2.7740 H   0  0  0  0  0  0  0  0  0  0  0  0
   23.5590  -15.0960   -1.0440 O   0  0  0  0  0  0  0  0  0  0  0  0
   23.2980  -15.8200   -0.4550 H   0  0  0  0  0  0  0  0  0  0  0  0
   19.6780  -13.4510   -3.4310 O   0  0  0  0  0  0  0  0  0  0  0  0
   20.1480  -12.8170   -4.0030 H   0  0  0  0  0  0  0  0  0  0  0  0
   19.5450  -11.2680   -1.2250 C   0  0  0  0  0  0  0  0  0  0  0  0
   18.4650  -12.2040   -0.9690 O   0  0  0  0  0  0  0  0  0  0  0  0
   17.6570  -11.8240   -1.3540 H   0  0  0  0  0  0  0  0  0  0  0  0
  1 12  1  6  0  0  0
  1 11  1  0  0  0  0
  2  1  1  0  0  0  0
  3  2  1  0  0  0  0
  4  2  1  0  0  0  0
  4  5  1  0  0  0  0
  5 10  1  0  0  0  0
  5 11  1  1  0  0  0
  6  5  1  6  0  0  0
  7 19  1  1  0  0  0
  7  8  1  0  0  0  0
  7  6  1  0  0  0  0
  8 23  1  6  0  0  0
  8  9  1  0  0  0  0
  9 25  1  1  0  0  0
  9 10  1  0  0  0  0
 12 18  1  0  0  0  0
 13 12  2  0  0  0  0
 13 14  1  0  0  0  0
 14 15  2  0  0  0  0
 15 16  1  0  0  0  0
 17 15  1  0  0  0  0
 18 17  2  0  0  0  0
 20 19  1  0  0  0  0
 21  6  1  0  0  0  0
 21 22  1  0  0  0  0
 24 23  1  0  0  0  0
 25 26  1  0  0  0  0
 27 26  1  0  0  0  0
M  END
>  <minimizedAffinity>
-6.91257954

$$$$
