
 OpenBabel12271915403D

 22 23  0  0  1  0  0  0  0  0999 V2000
   21.3540  -12.8870   -2.3960 C   0  0  2  0  0  0  0  0  0  0  0  0
   20.6500  -12.4900   -1.1100 C   0  0  2  0  0  0  0  0  0  0  0  0
   19.6200  -13.5670   -0.8130 O   0  0  0  0  0  0  0  0  0  0  0  0
   19.8450  -14.5550   -1.8560 C   0  0  2  0  0  0  0  0  0  0  0  0
   20.3590  -13.8150   -3.0280 C   0  0  0  0  0  0  0  0  0  0  0  0
   18.5960  -15.2210   -2.2790 C   0  0  0  0  0  0  0  0  0  0  0  0
   18.6930  -16.3000   -3.1490 C   0  0  0  0  0  0  0  0  0  0  0  0
   17.5880  -16.7000   -3.9060 C   0  0  0  0  0  0  0  0  0  0  0  0
   17.7580  -17.7910   -4.8950 C   0  0  0  0  0  0  0  0  0  0  0  0
   16.3900  -16.0360   -3.6870 C   0  0  0  0  0  0  0  0  0  0  0  0
   16.2440  -15.0220   -2.7920 N   0  0  0  0  0  0  0  0  0  0  0  0
   17.3610  -14.6420   -2.1010 C   0  0  0  0  0  0  0  0  0  0  0  0
   15.2480  -16.3300   -4.4000 O   0  0  0  0  0  0  0  0  0  0  0  0
   15.4510  -16.4440   -5.3380 H   0  0  0  0  0  0  0  0  0  0  0  0
   22.5450  -13.6510   -2.1250 O   0  0  0  0  0  0  0  0  0  0  0  0
   23.0560  -13.1190   -1.4780 H   0  0  0  0  0  0  0  0  0  0  0  0
   19.9130  -11.1850   -1.2620 C   0  0  0  0  0  0  0  0  0  0  0  0
   18.5790  -11.3200   -0.7860 O   0  0  0  0  0  0  0  0  0  0  0  0
   17.6540   -9.9360   -0.7420 P   0  0  0  0  0  0  0  0  0  0  0  0
   16.4400  -10.2700   -1.5830 O   0  0  0  0  0  0  0  0  0  0  0  0
   18.5440   -8.9290   -1.4000 O   0  0  0  0  0  0  0  0  0  0  0  0
   17.3310   -9.7100    0.6940 O   0  0  0  0  0  0  0  0  0  0  0  0
  1 15  1  1  0  0  0
  1  2  1  0  0  0  0
  2 17  1  6  0  0  0
  2  3  1  0  0  0  0
  4  6  1  6  0  0  0
  4  3  1  0  0  0  0
  5  1  1  0  0  0  0
  5  4  1  0  0  0  0
  6 12  2  0  0  0  0
  7  6  1  0  0  0  0
  8 10  1  0  0  0  0
  8  7  2  0  0  0  0
  9  8  1  0  0  0  0
 10 11  2  0  0  0  0
 11 12  1  0  0  0  0
 13 10  1  0  0  0  0
 14 13  1  0  0  0  0
 15 16  1  0  0  0  0
 17 18  1  0  0  0  0
 18 19  1  0  0  0  0
 19 22  1  0  0  0  0
 20 19  2  0  0  0  0
 21 19  1  0  0  0  0
M  END
>  <minimizedAffinity>
-7.58894014

$$$$

 OpenBabel12271915403D

 22 23  0  0  1  0  0  0  0  0999 V2000
   22.8620  -14.2730   -1.9720 C   0  0  2  0  0  0  0  0  0  0  0  0
   22.3650  -13.0510   -1.2220 C   0  0  2  0  0  0  0  0  0  0  0  0
   20.9390  -13.3420   -0.7860 O   0  0  0  0  0  0  0  0  0  0  0  0
   20.7260  -14.7180   -1.2050 C   0  0  2  0  0  0  0  0  0  0  0  0
   21.5800  -14.9300   -2.3930 C   0  0  0  0  0  0  0  0  0  0  0  0
   19.3320  -14.9690   -1.6240 C   0  0  0  0  0  0  0  0  0  0  0  0
   19.1010  -15.9640   -2.5650 C   0  0  0  0  0  0  0  0  0  0  0  0
   17.9160  -15.9780   -3.3060 C   0  0  0  0  0  0  0  0  0  0  0  0
   17.7500  -16.9970   -4.3690 C   0  0  0  0  0  0  0  0  0  0  0  0
   16.9620  -15.0190   -3.0010 C   0  0  0  0  0  0  0  0  0  0  0  0
   17.1270  -14.0720   -2.0380 N   0  0  0  0  0  0  0  0  0  0  0  0
   18.3170  -14.0770   -1.3640 C   0  0  0  0  0  0  0  0  0  0  0  0
   15.7720  -14.9230   -3.6900 O   0  0  0  0  0  0  0  0  0  0  0  0
   15.9190  -15.0220   -4.6390 H   0  0  0  0  0  0  0  0  0  0  0  0
   23.5450  -15.1860   -1.0900 O   0  0  0  0  0  0  0  0  0  0  0  0
   24.2140  -14.6430   -0.6200 H   0  0  0  0  0  0  0  0  0  0  0  0
   22.3300  -11.8330   -2.1090 C   0  0  0  0  0  0  0  0  0  0  0  0
   20.9890  -11.3810   -2.2640 O   0  0  0  0  0  0  0  0  0  0  0  0
   20.4420  -11.1770   -3.8230 P   0  0  0  0  0  0  0  0  0  0  0  0
   19.3240  -10.1640   -3.6980 O   0  0  0  0  0  0  0  0  0  0  0  0
   19.9380  -12.5420   -4.1720 O   0  0  0  0  0  0  0  0  0  0  0  0
   21.6080  -10.6740   -4.5990 O   0  0  0  0  0  0  0  0  0  0  0  0
  1  2  1  0  0  0  0
  1 15  1  1  0  0  0
  2 17  1  6  0  0  0
  2  3  1  0  0  0  0
  4  6  1  6  0  0  0
  4  3  1  0  0  0  0
  5  1  1  0  0  0  0
  5  4  1  0  0  0  0
  6 12  2  0  0  0  0
  7  6  1  0  0  0  0
  8 10  1  0  0  0  0
  8  7  2  0  0  0  0
  9  8  1  0  0  0  0
 10 11  2  0  0  0  0
 11 12  1  0  0  0  0
 13 10  1  0  0  0  0
 14 13  1  0  0  0  0
 15 16  1  0  0  0  0
 18 17  1  0  0  0  0
 19 20  1  0  0  0  0
 19 18  1  0  0  0  0
 21 19  1  0  0  0  0
 22 19  2  0  0  0  0
M  END
>  <minimizedAffinity>
-7.46762562

$$$$

 OpenBabel12271915403D

 22 23  0  0  1  0  0  0  0  0999 V2000
   22.6840  -13.7400   -1.7410 C   0  0  2  0  0  0  0  0  0  0  0  0
   22.1360  -12.9830   -0.5450 C   0  0  2  0  0  0  0  0  0  0  0  0
   20.7790  -13.5840   -0.2180 O   0  0  0  0  0  0  0  0  0  0  0  0
   20.6600  -14.6930   -1.1500 C   0  0  2  0  0  0  0  0  0  0  0  0
   21.4380  -14.3150   -2.3490 C   0  0  0  0  0  0  0  0  0  0  0  0
   19.2670  -14.9120   -1.5890 C   0  0  0  0  0  0  0  0  0  0  0  0
   19.0250  -15.9140   -2.5200 C   0  0  0  0  0  0  0  0  0  0  0  0
   17.8520  -15.9070   -3.2800 C   0  0  0  0  0  0  0  0  0  0  0  0
   17.6760  -16.9360   -4.3310 C   0  0  0  0  0  0  0  0  0  0  0  0
   16.9200  -14.9170   -3.0060 C   0  0  0  0  0  0  0  0  0  0  0  0
   17.0950  -13.9610   -2.0530 N   0  0  0  0  0  0  0  0  0  0  0  0
   18.2730  -13.9880   -1.3590 C   0  0  0  0  0  0  0  0  0  0  0  0
   15.7450  -14.7990   -3.7160 O   0  0  0  0  0  0  0  0  0  0  0  0
   15.9040  -14.9160   -4.6610 H   0  0  0  0  0  0  0  0  0  0  0  0
   23.5110  -14.8450   -1.3270 O   0  0  0  0  0  0  0  0  0  0  0  0
   24.1620  -14.4630   -0.6990 H   0  0  0  0  0  0  0  0  0  0  0  0
   21.9240  -11.5250   -0.8610 C   0  0  0  0  0  0  0  0  0  0  0  0
   23.1240  -10.9570   -1.3720 O   0  0  0  0  0  0  0  0  0  0  0  0
   24.1130  -10.1830   -0.2790 P   0  0  0  0  0  0  0  0  0  0  0  0
   25.0090  -11.2790    0.2580 O   0  0  0  0  0  0  0  0  0  0  0  0
   23.1410   -9.6880    0.7460 O   0  0  0  0  0  0  0  0  0  0  0  0
   24.8490   -9.1510   -1.0600 O   0  0  0  0  0  0  0  0  0  0  0  0
  1 15  1  1  0  0  0
  1  2  1  0  0  0  0
  2 17  1  6  0  0  0
  2  3  1  0  0  0  0
  4  6  1  6  0  0  0
  4  3  1  0  0  0  0
  5  1  1  0  0  0  0
  5  4  1  0  0  0  0
  6 12  2  0  0  0  0
  7  6  1  0  0  0  0
  8 10  1  0  0  0  0
  8  7  2  0  0  0  0
  9  8  1  0  0  0  0
 10 11  2  0  0  0  0
 11 12  1  0  0  0  0
 13 10  1  0  0  0  0
 14 13  1  0  0  0  0
 15 16  1  0  0  0  0
 18 17  1  0  0  0  0
 18 19  1  0  0  0  0
 19 20  1  0  0  0  0
 19 21  1  0  0  0  0
 22 19  2  0  0  0  0
M  END
>  <minimizedAffinity>
-7.24776459

$$$$

 OpenBabel12271915403D

 22 23  0  0  1  0  0  0  0  0999 V2000
   22.8770  -14.3340   -1.9470 C   0  0  2  0  0  0  0  0  0  0  0  0
   22.4170  -13.0830   -1.2200 C   0  0  2  0  0  0  0  0  0  0  0  0
   20.9800  -13.3180   -0.7890 O   0  0  0  0  0  0  0  0  0  0  0  0
   20.7210  -14.6920   -1.1870 C   0  0  2  0  0  0  0  0  0  0  0  0
   21.5750  -14.9530   -2.3660 C   0  0  0  0  0  0  0  0  0  0  0  0
   19.3220  -14.9020   -1.6120 C   0  0  0  0  0  0  0  0  0  0  0  0
   19.0620  -15.9080   -2.5330 C   0  0  0  0  0  0  0  0  0  0  0  0
   17.8820  -15.8950   -3.2820 C   0  0  0  0  0  0  0  0  0  0  0  0
   17.6870  -16.9300   -4.3250 C   0  0  0  0  0  0  0  0  0  0  0  0
   16.9620  -14.8950   -3.0060 C   0  0  0  0  0  0  0  0  0  0  0  0
   17.1550  -13.9340   -2.0620 N   0  0  0  0  0  0  0  0  0  0  0  0
   18.3390  -13.9670   -1.3790 C   0  0  0  0  0  0  0  0  0  0  0  0
   15.7810  -14.7710   -3.7060 O   0  0  0  0  0  0  0  0  0  0  0  0
   15.9310  -14.8960   -4.6520 H   0  0  0  0  0  0  0  0  0  0  0  0
   23.5210  -15.2560   -1.0460 O   0  0  0  0  0  0  0  0  0  0  0  0
   24.2070  -14.7290   -0.5800 H   0  0  0  0  0  0  0  0  0  0  0  0
   22.4300  -11.8790   -2.1260 C   0  0  0  0  0  0  0  0  0  0  0  0
   23.5930  -11.8980   -2.9460 O   0  0  0  0  0  0  0  0  0  0  0  0
   24.8770  -10.9610   -2.4480 P   0  0  0  0  0  0  0  0  0  0  0  0
   24.2340   -9.7990   -1.7220 O   0  0  0  0  0  0  0  0  0  0  0  0
   25.5010  -10.5490   -3.7450 O   0  0  0  0  0  0  0  0  0  0  0  0
   25.6920  -11.8320   -1.5570 O   0  0  0  0  0  0  0  0  0  0  0  0
  1  2  1  0  0  0  0
  1 15  1  1  0  0  0
  2 17  1  6  0  0  0
  2  3  1  0  0  0  0
  4  6  1  6  0  0  0
  4  3  1  0  0  0  0
  5  1  1  0  0  0  0
  5  4  1  0  0  0  0
  6 12  2  0  0  0  0
  7  6  1  0  0  0  0
  8 10  1  0  0  0  0
  8  7  2  0  0  0  0
  9  8  1  0  0  0  0
 10 11  2  0  0  0  0
 11 12  1  0  0  0  0
 13 10  1  0  0  0  0
 14 13  1  0  0  0  0
 15 16  1  0  0  0  0
 18 19  1  0  0  0  0
 18 17  1  0  0  0  0
 19 20  1  0  0  0  0
 19 22  1  0  0  0  0
 21 19  2  0  0  0  0
M  END
>  <minimizedAffinity>
-7.1336565

$$$$

 OpenBabel12271915403D

 22 23  0  0  1  0  0  0  0  0999 V2000
   22.1630  -14.5920   -1.7180 C   0  0  2  0  0  0  0  0  0  0  0  0
   21.2240  -13.9780   -0.6960 C   0  0  2  0  0  0  0  0  0  0  0  0
   19.8430  -14.5570   -0.9500 O   0  0  0  0  0  0  0  0  0  0  0  0
   20.0660  -15.5260   -2.0110 C   0  0  2  0  0  0  0  0  0  0  0  0
   21.2150  -15.0270   -2.7970 C   0  0  0  0  0  0  0  0  0  0  0  0
   18.9180  -15.6250   -2.9350 C   0  0  0  0  0  0  0  0  0  0  0  0
   17.9320  -14.6500   -2.8580 C   0  0  0  0  0  0  0  0  0  0  0  0
   16.6560  -14.8910   -3.3750 C   0  0  0  0  0  0  0  0  0  0  0  0
   15.6030  -13.8650   -3.1850 C   0  0  0  0  0  0  0  0  0  0  0  0
   16.4500  -16.0960   -4.0310 C   0  0  0  0  0  0  0  0  0  0  0  0
   17.4140  -17.0440   -4.1840 N   0  0  0  0  0  0  0  0  0  0  0  0
   18.6370  -16.7770   -3.6320 C   0  0  0  0  0  0  0  0  0  0  0  0
   15.2230  -16.4480   -4.5500 O   0  0  0  0  0  0  0  0  0  0  0  0
   14.5150  -16.2300   -3.9300 H   0  0  0  0  0  0  0  0  0  0  0  0
   22.7980  -15.7770   -1.2000 O   0  0  0  0  0  0  0  0  0  0  0  0
   23.1840  -15.5100   -0.3380 H   0  0  0  0  0  0  0  0  0  0  0  0
   21.1280  -12.4830   -0.8590 C   0  0  0  0  0  0  0  0  0  0  0  0
   19.8040  -12.1170   -1.2310 O   0  0  0  0  0  0  0  0  0  0  0  0
   19.6470  -11.0770   -2.5220 P   0  0  0  0  0  0  0  0  0  0  0  0
   18.2060  -11.2330   -2.9570 O   0  0  0  0  0  0  0  0  0  0  0  0
   20.6090  -11.6470   -3.5170 O   0  0  0  0  0  0  0  0  0  0  0  0
   19.9570   -9.7210   -1.9890 O   0  0  0  0  0  0  0  0  0  0  0  0
  1 15  1  1  0  0  0
  1  2  1  0  0  0  0
  2 17  1  6  0  0  0
  3  2  1  0  0  0  0
  4  6  1  6  0  0  0
  4  3  1  0  0  0  0
  5  4  1  0  0  0  0
  5  1  1  0  0  0  0
  6  7  1  0  0  0  0
  8  9  1  0  0  0  0
  8  7  2  0  0  0  0
 10  8  1  0  0  0  0
 11 10  2  0  0  0  0
 11 12  1  0  0  0  0
 12  6  2  0  0  0  0
 13 10  1  0  0  0  0
 13 14  1  0  0  0  0
 15 16  1  0  0  0  0
 18 17  1  0  0  0  0
 19 22  1  0  0  0  0
 19 18  1  0  0  0  0
 20 19  1  0  0  0  0
 21 19  2  0  0  0  0
M  END
>  <minimizedAffinity>
-6.95187569

$$$$

 OpenBabel12271915403D

 22 23  0  0  1  0  0  0  0  0999 V2000
   23.9070  -14.1300   -1.8210 C   0  0  2  0  0  0  0  0  0  0  0  0
   23.5570  -12.7860   -1.2080 C   0  0  2  0  0  0  0  0  0  0  0  0
   22.2110  -12.9430   -0.5220 O   0  0  0  0  0  0  0  0  0  0  0  0
   21.9070  -14.3570   -0.6800 C   0  0  2  0  0  0  0  0  0  0  0  0
   22.5630  -14.7860   -1.9340 C   0  0  0  0  0  0  0  0  0  0  0  0
   20.4610  -14.6070   -0.8390 C   0  0  0  0  0  0  0  0  0  0  0  0
   20.0490  -15.4130   -1.8940 C   0  0  0  0  0  0  0  0  0  0  0  0
   18.7310  -15.3560   -2.3560 C   0  0  0  0  0  0  0  0  0  0  0  0
   18.3560  -16.1560   -3.5450 C   0  0  0  0  0  0  0  0  0  0  0  0
   17.8490  -14.5340   -1.6690 C   0  0  0  0  0  0  0  0  0  0  0  0
   18.2030  -13.7850   -0.5900 N   0  0  0  0  0  0  0  0  0  0  0  0
   19.5110  -13.8470   -0.1970 C   0  0  0  0  0  0  0  0  0  0  0  0
   16.5360  -14.3800   -2.0590 O   0  0  0  0  0  0  0  0  0  0  0  0
   16.4740  -14.2830   -3.0180 H   0  0  0  0  0  0  0  0  0  0  0  0
   24.7000  -14.9260   -0.9180 O   0  0  0  0  0  0  0  0  0  0  0  0
   25.4450  -14.3470   -0.6460 H   0  0  0  0  0  0  0  0  0  0  0  0
   23.4090  -11.7180   -2.2610 C   0  0  0  0  0  0  0  0  0  0  0  0
   24.4070  -11.8790   -3.2630 O   0  0  0  0  0  0  0  0  0  0  0  0
   25.3560  -10.5530   -3.5970 P   0  0  0  0  0  0  0  0  0  0  0  0
   25.0930   -9.6050   -2.4470 O   0  0  0  0  0  0  0  0  0  0  0  0
   24.7810  -10.0580   -4.8870 O   0  0  0  0  0  0  0  0  0  0  0  0
   26.7560  -11.0570   -3.6360 O   0  0  0  0  0  0  0  0  0  0  0  0
  1  2  1  0  0  0  0
  1 15  1  1  0  0  0
  2 17  1  6  0  0  0
  2  3  1  0  0  0  0
  4  6  1  6  0  0  0
  4  3  1  0  0  0  0
  5  1  1  0  0  0  0
  5  4  1  0  0  0  0
  6 12  2  0  0  0  0
  7  6  1  0  0  0  0
  8  7  2  0  0  0  0
  8 10  1  0  0  0  0
  9  8  1  0  0  0  0
 10 11  2  0  0  0  0
 11 12  1  0  0  0  0
 13 10  1  0  0  0  0
 14 13  1  0  0  0  0
 15 16  1  0  0  0  0
 18 17  1  0  0  0  0
 19 18  1  0  0  0  0
 19 20  1  0  0  0  0
 21 19  2  0  0  0  0
 22 19  1  0  0  0  0
M  END
>  <minimizedAffinity>
-6.91091204

$$$$

 OpenBabel12271915403D

 22 23  0  0  1  0  0  0  0  0999 V2000
   20.6720  -11.9240   -2.6410 C   0  0  2  0  0  0  0  0  0  0  0  0
   21.5190  -13.1340   -2.2890 C   0  0  2  0  0  0  0  0  0  0  0  0
   20.7950  -14.3590   -2.8210 O   0  0  0  0  0  0  0  0  0  0  0  0
   19.6490  -13.8030   -3.5230 C   0  0  2  0  0  0  0  0  0  0  0  0
   19.3150  -12.5350   -2.8400 C   0  0  0  0  0  0  0  0  0  0  0  0
   18.4580  -14.6710   -3.4320 C   0  0  0  0  0  0  0  0  0  0  0  0
   18.5900  -16.0040   -3.7980 C   0  0  0  0  0  0  0  0  0  0  0  0
   17.4650  -16.7610   -4.1380 C   0  0  0  0  0  0  0  0  0  0  0  0
   17.6580  -18.1500   -4.6180 C   0  0  0  0  0  0  0  0  0  0  0  0
   16.2250  -16.1520   -4.0130 C   0  0  0  0  0  0  0  0  0  0  0  0
   16.0550  -14.8700   -3.5920 N   0  0  0  0  0  0  0  0  0  0  0  0
   17.1870  -14.1580   -3.3040 C   0  0  0  0  0  0  0  0  0  0  0  0
   15.0550  -16.7960   -4.3510 O   0  0  0  0  0  0  0  0  0  0  0  0
   15.1580  -17.2770   -5.1830 H   0  0  0  0  0  0  0  0  0  0  0  0
   21.0750  -11.3530   -3.9010 O   0  0  0  0  0  0  0  0  0  0  0  0
   22.0450  -11.2170   -3.8280 H   0  0  0  0  0  0  0  0  0  0  0  0
   21.6570  -13.2990   -0.7970 C   0  0  0  0  0  0  0  0  0  0  0  0
   23.0040  -13.6110   -0.4630 O   0  0  0  0  0  0  0  0  0  0  0  0
   24.0750  -12.3370   -0.3930 P   0  0  0  0  0  0  0  0  0  0  0  0
   24.6130  -12.2210   -1.8030 O   0  0  0  0  0  0  0  0  0  0  0  0
   25.1060  -12.8320    0.5720 O   0  0  0  0  0  0  0  0  0  0  0  0
   23.2720  -11.1570    0.0300 O   0  0  0  0  0  0  0  0  0  0  0  0
  1 15  1  6  0  0  0
  1  2  1  0  0  0  0
  2 17  1  1  0  0  0
  3  2  1  0  0  0  0
  4  6  1  1  0  0  0
  4  5  1  0  0  0  0
  4  3  1  0  0  0  0
  5  1  1  0  0  0  0
  6 12  2  0  0  0  0
  7  6  1  0  0  0  0
  8 10  1  0  0  0  0
  8  7  2  0  0  0  0
  9  8  1  0  0  0  0
 10 11  2  0  0  0  0
 11 12  1  0  0  0  0
 13 10  1  0  0  0  0
 14 13  1  0  0  0  0
 15 16  1  0  0  0  0
 17 18  1  0  0  0  0
 18 19  1  0  0  0  0
 19 22  1  0  0  0  0
 19 21  1  0  0  0  0
 20 19  2  0  0  0  0
M  END
>  <minimizedAffinity>
-6.74986744

$$$$

 OpenBabel12271915403D

 22 23  0  0  1  0  0  0  0  0999 V2000
   22.2580  -14.6040   -1.7910 C   0  0  2  0  0  0  0  0  0  0  0  0
   21.3490  -13.8980   -0.8010 C   0  0  2  0  0  0  0  0  0  0  0  0
   19.9460  -14.4400   -1.0140 O   0  0  0  0  0  0  0  0  0  0  0  0
   20.1270  -15.4760   -2.0180 C   0  0  2  0  0  0  0  0  0  0  0  0
   21.2860  -15.0650   -2.8380 C   0  0  0  0  0  0  0  0  0  0  0  0
   18.9690  -15.5860   -2.9280 C   0  0  0  0  0  0  0  0  0  0  0  0
   17.9930  -14.6000   -2.8660 C   0  0  0  0  0  0  0  0  0  0  0  0
   16.7090  -14.8410   -3.3650 C   0  0  0  0  0  0  0  0  0  0  0  0
   15.6690  -13.8000   -3.1910 C   0  0  0  0  0  0  0  0  0  0  0  0
   16.4860  -16.0590   -3.9900 C   0  0  0  0  0  0  0  0  0  0  0  0
   17.4400  -17.0200   -4.1290 N   0  0  0  0  0  0  0  0  0  0  0  0
   18.6700  -16.7520   -3.5940 C   0  0  0  0  0  0  0  0  0  0  0  0
   15.2510  -16.4120   -4.4890 O   0  0  0  0  0  0  0  0  0  0  0  0
   14.5510  -16.1720   -3.8680 H   0  0  0  0  0  0  0  0  0  0  0  0
   22.8530  -15.7800   -1.2090 O   0  0  0  0  0  0  0  0  0  0  0  0
   23.2550  -15.4780   -0.3650 H   0  0  0  0  0  0  0  0  0  0  0  0
   21.3060  -12.4120   -1.0500 C   0  0  0  0  0  0  0  0  0  0  0  0
   22.2760  -11.7540   -0.2430 O   0  0  0  0  0  0  0  0  0  0  0  0
   23.3420  -10.7430   -1.0260 P   0  0  0  0  0  0  0  0  0  0  0  0
   24.0460  -10.0020    0.0910 O   0  0  0  0  0  0  0  0  0  0  0  0
   22.4300   -9.8540   -1.8130 O   0  0  0  0  0  0  0  0  0  0  0  0
   24.2470  -11.6330   -1.8040 O   0  0  0  0  0  0  0  0  0  0  0  0
  1 15  1  1  0  0  0
  1  2  1  0  0  0  0
  2 17  1  6  0  0  0
  3  2  1  0  0  0  0
  4  6  1  6  0  0  0
  4  3  1  0  0  0  0
  5  4  1  0  0  0  0
  5  1  1  0  0  0  0
  6  7  1  0  0  0  0
  8  9  1  0  0  0  0
  8  7  2  0  0  0  0
 10  8  1  0  0  0  0
 11 10  2  0  0  0  0
 11 12  1  0  0  0  0
 12  6  2  0  0  0  0
 13 10  1  0  0  0  0
 13 14  1  0  0  0  0
 15 16  1  0  0  0  0
 17 18  1  0  0  0  0
 19 18  1  0  0  0  0
 19 20  1  0  0  0  0
 21 19  2  0  0  0  0
 22 19  1  0  0  0  0
M  END
>  <minimizedAffinity>
-6.69407845

$$$$

 OpenBabel12271915403D

 22 23  0  0  1  0  0  0  0  0999 V2000
   24.0960  -14.2480   -1.7090 C   0  0  2  0  0  0  0  0  0  0  0  0
   23.7590  -12.8770   -1.1490 C   0  0  2  0  0  0  0  0  0  0  0  0
   22.4110  -12.9940   -0.4590 O   0  0  0  0  0  0  0  0  0  0  0  0
   22.0930  -14.4100   -0.5630 C   0  0  2  0  0  0  0  0  0  0  0  0
   22.7450  -14.8940   -1.7980 C   0  0  0  0  0  0  0  0  0  0  0  0
   20.6440  -14.6510   -0.7140 C   0  0  0  0  0  0  0  0  0  0  0  0
   20.2130  -15.3680   -1.8230 C   0  0  0  0  0  0  0  0  0  0  0  0
   18.8860  -15.2780   -2.2540 C   0  0  0  0  0  0  0  0  0  0  0  0
   18.4890  -15.9790   -3.4970 C   0  0  0  0  0  0  0  0  0  0  0  0
   18.0160  -14.5180   -1.4850 C   0  0  0  0  0  0  0  0  0  0  0  0
   18.3900  -13.8590   -0.3540 N   0  0  0  0  0  0  0  0  0  0  0  0
   19.7050  -13.9490    0.0070 C   0  0  0  0  0  0  0  0  0  0  0  0
   16.6960  -14.3370   -1.8350 O   0  0  0  0  0  0  0  0  0  0  0  0
   16.6140  -14.1620   -2.7810 H   0  0  0  0  0  0  0  0  0  0  0  0
   24.8800  -15.0160   -0.7750 O   0  0  0  0  0  0  0  0  0  0  0  0
   25.6310  -14.4360   -0.5240 H   0  0  0  0  0  0  0  0  0  0  0  0
   23.6230  -11.8500   -2.2420 C   0  0  0  0  0  0  0  0  0  0  0  0
   23.5050  -10.5490   -1.6770 O   0  0  0  0  0  0  0  0  0  0  0  0
   22.1240   -9.6940   -2.0450 P   0  0  0  0  0  0  0  0  0  0  0  0
   21.4150   -9.5380   -0.7170 O   0  0  0  0  0  0  0  0  0  0  0  0
   21.4030  -10.6230   -2.9700 O   0  0  0  0  0  0  0  0  0  0  0  0
   22.5890   -8.4020   -2.6200 O   0  0  0  0  0  0  0  0  0  0  0  0
  1  2  1  0  0  0  0
  1 15  1  1  0  0  0
  2 17  1  6  0  0  0
  2  3  1  0  0  0  0
  4  6  1  6  0  0  0
  4  3  1  0  0  0  0
  5  1  1  0  0  0  0
  5  4  1  0  0  0  0
  6 12  2  0  0  0  0
  7  6  1  0  0  0  0
  8  7  2  0  0  0  0
  8 10  1  0  0  0  0
  9  8  1  0  0  0  0
 10 11  2  0  0  0  0
 11 12  1  0  0  0  0
 13 10  1  0  0  0  0
 14 13  1  0  0  0  0
 15 16  1  0  0  0  0
 17 18  1  0  0  0  0
 19 18  1  0  0  0  0
 19 20  1  0  0  0  0
 21 19  2  0  0  0  0
 22 19  1  0  0  0  0
M  END
>  <minimizedAffinity>
-6.63294363

$$$$
