
 OpenBabel12271915513D

 32 35  0  0  1  0  0  0  0  0999 V2000
   22.7470  -14.6490   -1.7010 C   0  0  1  0  0  0  0  0  0  0  0  0
   23.1400  -15.7440   -2.6570 N   0  0  0  0  0  0  0  0  0  0  0  0
   22.3390  -16.3400   -2.8990 H   0  0  0  0  0  0  0  0  0  0  0  0
   23.8650  -16.3420   -2.2310 H   0  0  0  0  0  0  0  0  0  0  0  0
   23.5290  -15.3830   -3.5450 H   0  0  0  0  0  0  0  0  0  0  0  0
   21.7850  -15.1850   -0.6200 C   0  0  0  0  0  0  0  0  0  0  0  0
   20.4170  -14.6430   -0.7540 C   0  0  0  0  0  0  0  0  0  0  0  0
   19.4420  -15.0520   -1.7180 C   0  0  0  0  0  0  0  0  0  0  0  0
   19.4310  -16.0210   -2.7530 C   0  0  0  0  0  0  0  0  0  0  0  0
   18.2950  -16.1530   -3.5320 C   0  0  0  0  0  0  0  0  0  0  0  0
   17.1850  -15.3420   -3.3190 C   0  0  0  0  0  0  0  0  0  0  0  0
   17.1730  -14.3770   -2.3190 C   0  0  0  0  0  0  0  0  0  0  0  0
   18.3240  -14.2520   -1.5170 C   0  0  0  0  0  0  0  0  0  0  0  0
   18.6010  -13.3880   -0.4850 N   0  0  0  0  0  0  0  0  0  0  0  0
   17.9600  -12.6660   -0.1610 H   0  0  0  0  0  0  0  0  0  0  0  0
   19.8520  -13.6270   -0.0000 C   0  0  0  0  0  0  0  0  0  0  0  0
   24.0080  -14.1270   -1.0330 C   0  0  0  0  0  0  0  0  0  0  0  0
   23.6020  -13.0160   -0.2130 O   0  0  0  0  0  0  0  0  0  0  0  0
   24.4310  -11.9250   -0.3150 C   0  0  0  0  0  0  0  0  0  0  0  0
   25.8020  -11.9450   -0.0670 C   0  0  0  0  0  0  0  0  0  0  0  0
   26.5680  -10.7930   -0.1490 C   0  0  0  0  0  0  0  0  0  0  0  0
   25.8760   -9.6090   -0.5010 C   0  0  0  0  0  0  0  0  0  0  0  0
   24.5580   -9.5370   -0.7620 N   0  0  0  0  0  0  0  0  0  0  0  0
   23.8740  -10.7020   -0.6660 C   0  0  0  0  0  0  0  0  0  0  0  0
   27.9970  -10.7780    0.1190 C   0  0  0  0  0  0  0  0  0  0  0  0
   28.6780  -11.7430    0.8170 C   0  0  0  0  0  0  0  0  0  0  0  0
   30.1090  -11.7050    1.0710 C   0  0  0  0  0  0  0  0  0  0  0  0
   30.6260  -12.5680    2.0660 C   0  0  0  0  0  0  0  0  0  0  0  0
   31.9830  -12.5360    2.3100 C   0  0  0  0  0  0  0  0  0  0  0  0
   32.8610  -11.7420    1.6710 N   0  0  0  0  0  0  0  0  0  0  0  0
   32.3350  -10.9240    0.7190 C   0  0  0  0  0  0  0  0  0  0  0  0
   30.9940  -10.8740    0.3950 C   0  0  0  0  0  0  0  0  0  0  0  0
  1 17  1  1  0  0  0
  1  6  1  0  0  0  0
  2  4  1  0  0  0  0
  2  1  1  0  0  0  0
  3  2  1  0  0  0  0
  5  2  1  0  0  0  0
  7  6  1  0  0  0  0
  7 16  2  0  0  0  0
  8 13  1  0  0  0  0
  8  7  1  0  0  0  0
  9  8  2  0  0  0  0
 10 11  2  0  0  0  0
 10  9  1  0  0  0  0
 11 12  1  0  0  0  0
 12 13  2  0  0  0  0
 13 14  1  0  0  0  0
 14 15  1  0  0  0  0
 14 16  1  0  0  0  0
 17 18  1  0  0  0  0
 19 18  1  0  0  0  0
 19 20  2  0  0  0  0
 21 20  1  0  0  0  0
 21 25  1  0  0  0  0
 22 21  2  0  0  0  0
 23 24  2  0  0  0  0
 23 22  1  0  0  0  0
 24 19  1  0  0  0  0
 25 26  2  0  0  0  0
 26 27  1  0  0  0  0
 27 28  2  0  0  0  0
 28 29  1  0  0  0  0
 30 29  2  0  0  0  0
 31 30  1  0  0  0  0
 32 31  2  0  0  0  0
 32 27  1  0  0  0  0
M  END
>  <minimizedAffinity>
-8.82998562

$$$$

 OpenBabel12271915513D

 32 35  0  0  1  0  0  0  0  0999 V2000
   17.0390  -14.9280   -2.6250 C   0  0  1  0  0  0  0  0  0  0  0  0
   16.0540  -15.8640   -3.2730 N   0  0  0  0  0  0  0  0  0  0  0  0
   16.1440  -16.8210   -2.9080 H   0  0  0  0  0  0  0  0  0  0  0  0
   16.2150  -15.8960   -4.2920 H   0  0  0  0  0  0  0  0  0  0  0  0
   15.0710  -15.5770   -3.1320 H   0  0  0  0  0  0  0  0  0  0  0  0
   18.4170  -15.6050   -2.4680 C   0  0  0  0  0  0  0  0  0  0  0  0
   19.3000  -14.8920   -1.5220 C   0  0  0  0  0  0  0  0  0  0  0  0
   20.7220  -14.7810   -1.6210 C   0  0  0  0  0  0  0  0  0  0  0  0
   21.6810  -15.2430   -2.5590 C   0  0  0  0  0  0  0  0  0  0  0  0
   23.0180  -14.9640   -2.3390 C   0  0  0  0  0  0  0  0  0  0  0  0
   23.4250  -14.2570   -1.2120 C   0  0  0  0  0  0  0  0  0  0  0  0
   22.5080  -13.8020   -0.2710 C   0  0  0  0  0  0  0  0  0  0  0  0
   21.1460  -14.0750   -0.5020 C   0  0  0  0  0  0  0  0  0  0  0  0
   20.0370  -13.7720    0.2520 N   0  0  0  0  0  0  0  0  0  0  0  0
   20.0740  -13.2890    1.1480 H   0  0  0  0  0  0  0  0  0  0  0  0
   18.9130  -14.2400   -0.3620 C   0  0  0  0  0  0  0  0  0  0  0  0
   17.1830  -13.7020   -3.5110 C   0  0  0  0  0  0  0  0  0  0  0  0
   16.7610  -12.5780   -2.7180 O   0  0  0  0  0  0  0  0  0  0  0  0
   17.7830  -11.7190   -2.3930 C   0  0  0  0  0  0  0  0  0  0  0  0
   19.0860  -11.8180   -2.8780 C   0  0  0  0  0  0  0  0  0  0  0  0
   20.0770  -10.9390   -2.4720 C   0  0  0  0  0  0  0  0  0  0  0  0
   19.6840   -9.9430   -1.5470 C   0  0  0  0  0  0  0  0  0  0  0  0
   18.4400   -9.7960   -1.0570 N   0  0  0  0  0  0  0  0  0  0  0  0
   17.5230  -10.6880   -1.5010 C   0  0  0  0  0  0  0  0  0  0  0  0
   21.4480  -11.0260   -2.9470 C   0  0  0  0  0  0  0  0  0  0  0  0
   22.5600  -10.7130   -2.2080 C   0  0  0  0  0  0  0  0  0  0  0  0
   23.9230  -10.8100   -2.7080 C   0  0  0  0  0  0  0  0  0  0  0  0
   24.1160  -10.7680   -4.1090 C   0  0  0  0  0  0  0  0  0  0  0  0
   25.4060  -10.8590   -4.5870 C   0  0  0  0  0  0  0  0  0  0  0  0
   26.5040  -10.9860   -3.8200 N   0  0  0  0  0  0  0  0  0  0  0  0
   26.2870  -11.0220   -2.4770 C   0  0  0  0  0  0  0  0  0  0  0  0
   25.0400  -10.9390   -1.8910 C   0  0  0  0  0  0  0  0  0  0  0  0
  1 17  1  6  0  0  0
  1  6  1  0  0  0  0
  2  5  1  0  0  0  0
  2  3  1  0  0  0  0
  2  1  1  0  0  0  0
  4  2  1  0  0  0  0
  6  7  1  0  0  0  0
  7 16  2  0  0  0  0
  8  7  1  0  0  0  0
  8 13  2  0  0  0  0
  9 10  2  0  0  0  0
  9  8  1  0  0  0  0
 10 11  1  0  0  0  0
 11 12  2  0  0  0  0
 13 12  1  0  0  0  0
 13 14  1  0  0  0  0
 14 15  1  0  0  0  0
 16 14  1  0  0  0  0
 17 18  1  0  0  0  0
 18 19  1  0  0  0  0
 19 24  2  0  0  0  0
 20 21  2  0  0  0  0
 20 19  1  0  0  0  0
 21 22  1  0  0  0  0
 22 23  2  0  0  0  0
 24 23  1  0  0  0  0
 25 21  1  0  0  0  0
 25 26  2  0  0  0  0
 27 26  1  0  0  0  0
 27 32  2  0  0  0  0
 28 27  1  0  0  0  0
 29 28  2  0  0  0  0
 29 30  1  0  0  0  0
 30 31  2  0  0  0  0
 31 32  1  0  0  0  0
M  END
>  <minimizedAffinity>
-8.68962097

$$$$

 OpenBabel12271915513D

 32 35  0  0  1  0  0  0  0  0999 V2000
   22.6460   -9.3800   -1.2070 C   0  0  1  0  0  0  0  0  0  0  0  0
   23.4880   -8.2960   -0.5870 N   0  0  0  0  0  0  0  0  0  0  0  0
   23.0910   -7.3640   -0.7580 H   0  0  0  0  0  0  0  0  0  0  0  0
   24.4400   -8.3150   -0.9860 H   0  0  0  0  0  0  0  0  0  0  0  0
   23.5880   -8.3990    0.4380 H   0  0  0  0  0  0  0  0  0  0  0  0
   22.1550   -8.9580   -2.6070 C   0  0  0  0  0  0  0  0  0  0  0  0
   21.1730   -9.9030   -3.1760 C   0  0  0  0  0  0  0  0  0  0  0  0
   20.0100  -10.4070   -2.5130 C   0  0  0  0  0  0  0  0  0  0  0  0
   19.4390  -10.1920   -1.2330 C   0  0  0  0  0  0  0  0  0  0  0  0
   18.2800  -10.8700   -0.8960 C   0  0  0  0  0  0  0  0  0  0  0  0
   17.6890  -11.7600   -1.7870 C   0  0  0  0  0  0  0  0  0  0  0  0
   18.2340  -11.9980   -3.0440 C   0  0  0  0  0  0  0  0  0  0  0  0
   19.4050  -11.2980   -3.3910 C   0  0  0  0  0  0  0  0  0  0  0  0
   20.1640  -11.3450   -4.5370 N   0  0  0  0  0  0  0  0  0  0  0  0
   19.9610  -11.9530   -5.3280 H   0  0  0  0  0  0  0  0  0  0  0  0
   21.2220  -10.4920   -4.4300 C   0  0  0  0  0  0  0  0  0  0  0  0
   23.5000  -10.6300   -1.3320 C   0  0  0  0  0  0  0  0  0  0  0  0
   22.9070  -11.6140   -0.4650 O   0  0  0  0  0  0  0  0  0  0  0  0
   22.8040  -12.8600   -1.0350 C   0  0  0  0  0  0  0  0  0  0  0  0
   21.6820  -13.3290   -1.7150 C   0  0  0  0  0  0  0  0  0  0  0  0
   21.6340  -14.6150   -2.2280 C   0  0  0  0  0  0  0  0  0  0  0  0
   22.7860  -15.4110   -2.0230 C   0  0  0  0  0  0  0  0  0  0  0  0
   23.8980  -15.0040   -1.3840 N   0  0  0  0  0  0  0  0  0  0  0  0
   23.8750  -13.7340   -0.9130 C   0  0  0  0  0  0  0  0  0  0  0  0
   20.4720  -15.1390   -2.9290 C   0  0  0  0  0  0  0  0  0  0  0  0
   19.2310  -15.3190   -2.3730 C   0  0  0  0  0  0  0  0  0  0  0  0
   18.0840  -15.8440   -3.0970 C   0  0  0  0  0  0  0  0  0  0  0  0
   18.3060  -16.9130   -3.9980 C   0  0  0  0  0  0  0  0  0  0  0  0
   17.2210  -17.4150   -4.6860 C   0  0  0  0  0  0  0  0  0  0  0  0
   15.9590  -16.9640   -4.5670 N   0  0  0  0  0  0  0  0  0  0  0  0
   15.7770  -15.9360   -3.6940 C   0  0  0  0  0  0  0  0  0  0  0  0
   16.7900  -15.3600   -2.9540 C   0  0  0  0  0  0  0  0  0  0  0  0
  1  6  1  6  0  0  0
  1  2  1  0  0  0  0
  2  5  1  0  0  0  0
  3  2  1  0  0  0  0
  4  2  1  0  0  0  0
  7  6  1  0  0  0  0
  7  8  1  0  0  0  0
  8  9  2  0  0  0  0
  9 10  1  0  0  0  0
 11 10  2  0  0  0  0
 12 11  1  0  0  0  0
 13 12  2  0  0  0  0
 13  8  1  0  0  0  0
 14 16  1  0  0  0  0
 14 13  1  0  0  0  0
 15 14  1  0  0  0  0
 16  7  2  0  0  0  0
 17  1  1  0  0  0  0
 17 18  1  0  0  0  0
 19 24  1  0  0  0  0
 19 18  1  0  0  0  0
 20 19  2  0  0  0  0
 21 22  2  0  0  0  0
 21 20  1  0  0  0  0
 22 23  1  0  0  0  0
 23 24  2  0  0  0  0
 25 26  2  0  0  0  0
 25 21  1  0  0  0  0
 27 32  1  0  0  0  0
 27 26  1  0  0  0  0
 28 27  2  0  0  0  0
 29 30  2  0  0  0  0
 29 28  1  0  0  0  0
 30 31  1  0  0  0  0
 31 32  2  0  0  0  0
M  END
>  <minimizedAffinity>
-8.65125847

$$$$

 OpenBabel12271915513D

 32 35  0  0  1  0  0  0  0  0999 V2000
   25.2480  -10.8370   -0.8650 C   0  0  1  0  0  0  0  0  0  0  0  0
   26.3150  -10.0430   -0.1580 N   0  0  0  0  0  0  0  0  0  0  0  0
   26.7700  -10.5950    0.5800 H   0  0  0  0  0  0  0  0  0  0  0  0
   25.9010   -9.2060    0.2790 H   0  0  0  0  0  0  0  0  0  0  0  0
   27.0600   -9.7140   -0.7950 H   0  0  0  0  0  0  0  0  0  0  0  0
   24.4270  -11.6690    0.1430 C   0  0  0  0  0  0  0  0  0  0  0  0
   24.0310  -12.9880   -0.3940 C   0  0  0  0  0  0  0  0  0  0  0  0
   22.6930  -13.4750   -0.5240 C   0  0  0  0  0  0  0  0  0  0  0  0
   21.4160  -12.9260   -0.2390 C   0  0  0  0  0  0  0  0  0  0  0  0
   20.2910  -13.6950   -0.4780 C   0  0  0  0  0  0  0  0  0  0  0  0
   20.4020  -14.9890   -0.9760 C   0  0  0  0  0  0  0  0  0  0  0  0
   21.6410  -15.5550   -1.2540 C   0  0  0  0  0  0  0  0  0  0  0  0
   22.7850  -14.7680   -1.0230 C   0  0  0  0  0  0  0  0  0  0  0  0
   24.1180  -15.0650   -1.1850 N   0  0  0  0  0  0  0  0  0  0  0  0
   24.4640  -15.9690   -1.5020 H   0  0  0  0  0  0  0  0  0  0  0  0
   24.8810  -13.9920   -0.8300 C   0  0  0  0  0  0  0  0  0  0  0  0
   24.3250   -9.8620   -1.5770 C   0  0  0  0  0  0  0  0  0  0  0  0
   24.3980  -10.1850   -2.9780 O   0  0  0  0  0  0  0  0  0  0  0  0
   23.1750  -10.2080   -3.6020 C   0  0  0  0  0  0  0  0  0  0  0  0
   22.1200  -11.0470   -3.2470 C   0  0  0  0  0  0  0  0  0  0  0  0
   20.9270  -11.0440   -3.9520 C   0  0  0  0  0  0  0  0  0  0  0  0
   20.8480  -10.1430   -5.0400 C   0  0  0  0  0  0  0  0  0  0  0  0
   21.8310   -9.3050   -5.4170 N   0  0  0  0  0  0  0  0  0  0  0  0
   22.9670   -9.3600   -4.6810 C   0  0  0  0  0  0  0  0  0  0  0  0
   19.8140  -11.9180   -3.6170 C   0  0  0  0  0  0  0  0  0  0  0  0
   19.6520  -13.2000   -4.0770 C   0  0  0  0  0  0  0  0  0  0  0  0
   18.5290  -14.0540   -3.7240 C   0  0  0  0  0  0  0  0  0  0  0  0
   17.3680  -13.4360   -3.2010 C   0  0  0  0  0  0  0  0  0  0  0  0
   16.3000  -14.2420   -2.8670 C   0  0  0  0  0  0  0  0  0  0  0  0
   16.2750  -15.5810   -2.9990 N   0  0  0  0  0  0  0  0  0  0  0  0
   17.4050  -16.1460   -3.5040 C   0  0  0  0  0  0  0  0  0  0  0  0
   18.5300  -15.4360   -3.8720 C   0  0  0  0  0  0  0  0  0  0  0  0
  1 17  1  1  0  0  0
  1  2  1  0  0  0  0
  1  6  1  0  0  0  0
  2  4  1  0  0  0  0
  2  3  1  0  0  0  0
  5  2  1  0  0  0  0
  7  6  1  0  0  0  0
  8  7  1  0  0  0  0
  8  9  2  0  0  0  0
 10  9  1  0  0  0  0
 11 10  2  0  0  0  0
 12 13  2  0  0  0  0
 12 11  1  0  0  0  0
 13  8  1  0  0  0  0
 14 13  1  0  0  0  0
 14 16  1  0  0  0  0
 15 14  1  0  0  0  0
 16  7  2  0  0  0  0
 18 17  1  0  0  0  0
 19 20  1  0  0  0  0
 19 18  1  0  0  0  0
 21 25  1  0  0  0  0
 21 20  2  0  0  0  0
 22 21  1  0  0  0  0
 23 22  2  0  0  0  0
 23 24  1  0  0  0  0
 24 19  2  0  0  0  0
 26 27  1  0  0  0  0
 26 25  2  0  0  0  0
 27 28  1  0  0  0  0
 28 29  2  0  0  0  0
 30 29  1  0  0  0  0
 31 30  2  0  0  0  0
 32 27  2  0  0  0  0
 32 31  1  0  0  0  0
M  END
>  <minimizedAffinity>
-8.60540199

$$$$

 OpenBabel12271915513D

 32 35  0  0  1  0  0  0  0  0999 V2000
   19.3140  -12.2840   -2.4370 C   0  0  1  0  0  0  0  0  0  0  0  0
   19.4500  -12.2920   -3.9360 N   0  0  0  0  0  0  0  0  0  0  0  0
   18.7790  -12.9360   -4.3740 H   0  0  0  0  0  0  0  0  0  0  0  0
   20.4000  -12.5930   -4.2030 H   0  0  0  0  0  0  0  0  0  0  0  0
   19.2980  -11.3610   -4.3600 H   0  0  0  0  0  0  0  0  0  0  0  0
   19.1000  -13.7140   -1.8990 C   0  0  0  0  0  0  0  0  0  0  0  0
   17.8390  -14.3210   -2.3770 C   0  0  0  0  0  0  0  0  0  0  0  0
   17.7230  -15.5240   -3.1420 C   0  0  0  0  0  0  0  0  0  0  0  0
   18.6590  -16.4650   -3.6390 C   0  0  0  0  0  0  0  0  0  0  0  0
   18.1970  -17.5420   -4.3760 C   0  0  0  0  0  0  0  0  0  0  0  0
   16.8400  -17.6960   -4.6400 C   0  0  0  0  0  0  0  0  0  0  0  0
   15.9010  -16.7830   -4.1730 C   0  0  0  0  0  0  0  0  0  0  0  0
   16.3710  -15.6950   -3.4130 C   0  0  0  0  0  0  0  0  0  0  0  0
   15.6900  -14.6430   -2.8480 N   0  0  0  0  0  0  0  0  0  0  0  0
   14.6840  -14.5060   -2.9330 H   0  0  0  0  0  0  0  0  0  0  0  0
   16.5600  -13.8170   -2.2010 C   0  0  0  0  0  0  0  0  0  0  0  0
   20.5930  -11.7150   -1.8470 C   0  0  0  0  0  0  0  0  0  0  0  0
   20.9450  -12.5680   -0.7430 O   0  0  0  0  0  0  0  0  0  0  0  0
   22.2880  -12.8460   -0.6680 C   0  0  0  0  0  0  0  0  0  0  0  0
   23.2610  -11.9440   -0.2410 C   0  0  0  0  0  0  0  0  0  0  0  0
   24.6050  -12.2820   -0.2310 C   0  0  0  0  0  0  0  0  0  0  0  0
   24.9210  -13.5890   -0.6740 C   0  0  0  0  0  0  0  0  0  0  0  0
   24.0210  -14.5010   -1.0840 N   0  0  0  0  0  0  0  0  0  0  0  0
   22.7270  -14.1020   -1.0630 C   0  0  0  0  0  0  0  0  0  0  0  0
   25.6450  -11.3580    0.1930 C   0  0  0  0  0  0  0  0  0  0  0  0
   26.9680  -11.4460   -0.1570 C   0  0  0  0  0  0  0  0  0  0  0  0
   27.9890  -10.5080    0.2810 C   0  0  0  0  0  0  0  0  0  0  0  0
   29.2690  -11.0240    0.5940 C   0  0  0  0  0  0  0  0  0  0  0  0
   30.2400  -10.1370    1.0080 C   0  0  0  0  0  0  0  0  0  0  0  0
   30.0650   -8.8100    1.1400 N   0  0  0  0  0  0  0  0  0  0  0  0
   28.8250   -8.3430    0.8320 C   0  0  0  0  0  0  0  0  0  0  0  0
   27.7800   -9.1400    0.4070 C   0  0  0  0  0  0  0  0  0  0  0  0
  1  6  1  1  0  0  0
  1 17  1  0  0  0  0
  2  1  1  0  0  0  0
  3  2  1  0  0  0  0
  4  2  1  0  0  0  0
  5  2  1  0  0  0  0
  7 16  2  0  0  0  0
  7  6  1  0  0  0  0
  8  7  1  0  0  0  0
  9  8  2  0  0  0  0
 10  9  1  0  0  0  0
 11 10  2  0  0  0  0
 11 12  1  0  0  0  0
 12 13  2  0  0  0  0
 13  8  1  0  0  0  0
 13 14  1  0  0  0  0
 14 16  1  0  0  0  0
 15 14  1  0  0  0  0
 17 18  1  0  0  0  0
 18 19  1  0  0  0  0
 19 20  2  0  0  0  0
 20 21  1  0  0  0  0
 21 25  1  0  0  0  0
 22 21  2  0  0  0  0
 23 24  2  0  0  0  0
 23 22  1  0  0  0  0
 24 19  1  0  0  0  0
 26 25  2  0  0  0  0
 26 27  1  0  0  0  0
 27 32  2  0  0  0  0
 27 28  1  0  0  0  0
 28 29  2  0  0  0  0
 29 30  1  0  0  0  0
 31 30  2  0  0  0  0
 32 31  1  0  0  0  0
M  END
>  <minimizedAffinity>
-8.40233231

$$$$

 OpenBabel12271915513D

 32 35  0  0  1  0  0  0  0  0999 V2000
   23.5490   -9.1700   -0.7790 C   0  0  1  0  0  0  0  0  0  0  0  0
   24.9390   -9.3130   -1.3430 N   0  0  0  0  0  0  0  0  0  0  0  0
   25.0500   -8.7790   -2.2140 H   0  0  0  0  0  0  0  0  0  0  0  0
   25.1370  -10.3040   -1.5490 H   0  0  0  0  0  0  0  0  0  0  0  0
   25.6730   -8.9870   -0.6910 H   0  0  0  0  0  0  0  0  0  0  0  0
   22.4940   -9.2320   -1.9030 C   0  0  0  0  0  0  0  0  0  0  0  0
   21.1110   -9.2740   -1.3850 C   0  0  0  0  0  0  0  0  0  0  0  0
   20.0420  -10.0690   -1.9070 C   0  0  0  0  0  0  0  0  0  0  0  0
   19.9420  -11.0060   -2.9670 C   0  0  0  0  0  0  0  0  0  0  0  0
   18.7190  -11.6020   -3.2180 C   0  0  0  0  0  0  0  0  0  0  0  0
   17.5990  -11.2830   -2.4580 C   0  0  0  0  0  0  0  0  0  0  0  0
   17.6660  -10.3600   -1.4200 C   0  0  0  0  0  0  0  0  0  0  0  0
   18.9140   -9.7630   -1.1560 C   0  0  0  0  0  0  0  0  0  0  0  0
   19.2700   -8.8190   -0.2220 N   0  0  0  0  0  0  0  0  0  0  0  0
   18.6170   -8.3930    0.4320 H   0  0  0  0  0  0  0  0  0  0  0  0
   20.5980   -8.5300   -0.3350 C   0  0  0  0  0  0  0  0  0  0  0  0
   23.3120  -10.3150    0.1920 C   0  0  0  0  0  0  0  0  0  0  0  0
   24.3540  -11.2760   -0.0530 O   0  0  0  0  0  0  0  0  0  0  0  0
   23.8910  -12.4860   -0.5100 C   0  0  0  0  0  0  0  0  0  0  0  0
   22.5610  -12.7560   -0.8280 C   0  0  0  0  0  0  0  0  0  0  0  0
   22.1600  -14.0160   -1.2440 C   0  0  0  0  0  0  0  0  0  0  0  0
   23.1760  -14.9970   -1.3280 C   0  0  0  0  0  0  0  0  0  0  0  0
   24.4740  -14.7860   -1.0450 N   0  0  0  0  0  0  0  0  0  0  0  0
   24.7940  -13.5310   -0.6480 C   0  0  0  0  0  0  0  0  0  0  0  0
   20.7780  -14.3330   -1.5670 C   0  0  0  0  0  0  0  0  0  0  0  0
   20.3790  -15.2290   -2.5260 C   0  0  0  0  0  0  0  0  0  0  0  0
   18.9890  -15.5300   -2.8290 C   0  0  0  0  0  0  0  0  0  0  0  0
   17.9900  -14.8090   -2.1320 C   0  0  0  0  0  0  0  0  0  0  0  0
   16.6710  -15.0900   -2.4170 C   0  0  0  0  0  0  0  0  0  0  0  0
   16.2550  -16.0040   -3.3130 N   0  0  0  0  0  0  0  0  0  0  0  0
   17.2370  -16.6800   -3.9680 C   0  0  0  0  0  0  0  0  0  0  0  0
   18.5870  -16.4790   -3.7610 C   0  0  0  0  0  0  0  0  0  0  0  0
  1  6  1  6  0  0  0
  1 17  1  0  0  0  0
  2  1  1  0  0  0  0
  2  5  1  0  0  0  0
  3  2  1  0  0  0  0
  4  2  1  0  0  0  0
  6  7  1  0  0  0  0
  7 16  2  0  0  0  0
  8  7  1  0  0  0  0
  8 13  2  0  0  0  0
  9  8  1  0  0  0  0
 10  9  2  0  0  0  0
 10 11  1  0  0  0  0
 11 12  2  0  0  0  0
 12 13  1  0  0  0  0
 13 14  1  0  0  0  0
 14 15  1  0  0  0  0
 16 14  1  0  0  0  0
 18 17  1  0  0  0  0
 19 18  1  0  0  0  0
 20 19  2  0  0  0  0
 21 20  1  0  0  0  0
 22 21  2  0  0  0  0
 22 23  1  0  0  0  0
 23 24  2  0  0  0  0
 24 19  1  0  0  0  0
 25 21  1  0  0  0  0
 26 25  2  0  0  0  0
 27 26  1  0  0  0  0
 27 28  2  0  0  0  0
 29 28  1  0  0  0  0
 30 29  2  0  0  0  0
 31 32  2  0  0  0  0
 31 30  1  0  0  0  0
 32 27  1  0  0  0  0
M  END
>  <minimizedAffinity>
-8.32778931

$$$$

 OpenBabel12271915513D

 32 35  0  0  1  0  0  0  0  0999 V2000
   24.4670  -11.0350   -3.8560 C   0  0  1  0  0  0  0  0  0  0  0  0
   25.6420  -11.2990   -4.7600 N   0  0  0  0  0  0  0  0  0  0  0  0
   26.1000  -12.1910   -4.5340 H   0  0  0  0  0  0  0  0  0  0  0  0
   26.3420  -10.5470   -4.6600 H   0  0  0  0  0  0  0  0  0  0  0  0
   25.3800  -11.3380   -5.7600 H   0  0  0  0  0  0  0  0  0  0  0  0
   24.7980  -11.4240   -2.4000 C   0  0  0  0  0  0  0  0  0  0  0  0
   23.5890  -11.6400   -1.5780 C   0  0  0  0  0  0  0  0  0  0  0  0
   22.8530  -12.8610   -1.4700 C   0  0  0  0  0  0  0  0  0  0  0  0
   23.0100  -14.1550   -2.0300 C   0  0  0  0  0  0  0  0  0  0  0  0
   22.0820  -15.1340   -1.7200 C   0  0  0  0  0  0  0  0  0  0  0  0
   21.0040  -14.8570   -0.8860 C   0  0  0  0  0  0  0  0  0  0  0  0
   20.8190  -13.5950   -0.3330 C   0  0  0  0  0  0  0  0  0  0  0  0
   21.7710  -12.6030   -0.6380 C   0  0  0  0  0  0  0  0  0  0  0  0
   21.8350  -11.2830   -0.2580 N   0  0  0  0  0  0  0  0  0  0  0  0
   21.1360  -10.8250    0.3240 H   0  0  0  0  0  0  0  0  0  0  0  0
   22.9390  -10.6950   -0.8000 C   0  0  0  0  0  0  0  0  0  0  0  0
   24.1480   -9.5500   -3.9160 C   0  0  0  0  0  0  0  0  0  0  0  0
   22.9560   -9.4240   -4.7120 O   0  0  0  0  0  0  0  0  0  0  0  0
   21.7950   -9.5520   -3.9900 C   0  0  0  0  0  0  0  0  0  0  0  0
   20.9710  -10.6770   -4.0060 C   0  0  0  0  0  0  0  0  0  0  0  0
   19.7900  -10.7180   -3.2820 C   0  0  0  0  0  0  0  0  0  0  0  0
   19.4800   -9.5600   -2.5300 C   0  0  0  0  0  0  0  0  0  0  0  0
   20.2450   -8.4540   -2.4700 N   0  0  0  0  0  0  0  0  0  0  0  0
   21.3860   -8.4870   -3.2000 C   0  0  0  0  0  0  0  0  0  0  0  0
   18.9020  -11.8690   -3.2920 C   0  0  0  0  0  0  0  0  0  0  0  0
   19.2770  -13.1510   -3.6040 C   0  0  0  0  0  0  0  0  0  0  0  0
   18.3680  -14.2870   -3.6040 C   0  0  0  0  0  0  0  0  0  0  0  0
   18.9200  -15.5730   -3.8130 C   0  0  0  0  0  0  0  0  0  0  0  0
   18.0620  -16.6520   -3.8130 C   0  0  0  0  0  0  0  0  0  0  0  0
   16.7310  -16.5780   -3.6310 N   0  0  0  0  0  0  0  0  0  0  0  0
   16.2300  -15.3290   -3.4330 C   0  0  0  0  0  0  0  0  0  0  0  0
   16.9960  -14.1810   -3.4120 C   0  0  0  0  0  0  0  0  0  0  0  0
  1 17  1  1  0  0  0
  1  6  1  0  0  0  0
  2  4  1  0  0  0  0
  2  3  1  0  0  0  0
  2  1  1  0  0  0  0
  5  2  1  0  0  0  0
  6  7  1  0  0  0  0
  7  8  1  0  0  0  0
  7 16  2  0  0  0  0
  8 13  2  0  0  0  0
  9 10  2  0  0  0  0
  9  8  1  0  0  0  0
 10 11  1  0  0  0  0
 11 12  2  0  0  0  0
 13 12  1  0  0  0  0
 13 14  1  0  0  0  0
 14 15  1  0  0  0  0
 16 14  1  0  0  0  0
 18 19  1  0  0  0  0
 18 17  1  0  0  0  0
 19 24  1  0  0  0  0
 20 19  2  0  0  0  0
 20 21  1  0  0  0  0
 21 22  2  0  0  0  0
 22 23  1  0  0  0  0
 24 23  2  0  0  0  0
 25 21  1  0  0  0  0
 26 27  1  0  0  0  0
 26 25  2  0  0  0  0
 27 32  2  0  0  0  0
 28 29  2  0  0  0  0
 28 27  1  0  0  0  0
 29 30  1  0  0  0  0
 30 31  2  0  0  0  0
 31 32  1  0  0  0  0
M  END
>  <minimizedAffinity>
-8.26894665

$$$$

 OpenBabel12271915513D

 32 35  0  0  1  0  0  0  0  0999 V2000
   22.5160  -14.2700   -1.5340 C   0  0  1  0  0  0  0  0  0  0  0  0
   23.7230  -15.1620   -1.6680 N   0  0  0  0  0  0  0  0  0  0  0  0
   23.4650  -16.1560   -1.6280 H   0  0  0  0  0  0  0  0  0  0  0  0
   24.3880  -14.9740   -0.9020 H   0  0  0  0  0  0  0  0  0  0  0  0
   24.2350  -15.0170   -2.5560 H   0  0  0  0  0  0  0  0  0  0  0  0
   21.5540  -14.8110   -0.4560 C   0  0  0  0  0  0  0  0  0  0  0  0
   20.1450  -14.4470   -0.7150 C   0  0  0  0  0  0  0  0  0  0  0  0
   19.3070  -15.0040   -1.7320 C   0  0  0  0  0  0  0  0  0  0  0  0
   19.4960  -15.9990   -2.7240 C   0  0  0  0  0  0  0  0  0  0  0  0
   18.4500  -16.2950   -3.5800 C   0  0  0  0  0  0  0  0  0  0  0  0
   17.2360  -15.6220   -3.4850 C   0  0  0  0  0  0  0  0  0  0  0  0
   17.0280  -14.6350   -2.5290 C   0  0  0  0  0  0  0  0  0  0  0  0
   18.0880  -14.3430   -1.6490 C   0  0  0  0  0  0  0  0  0  0  0  0
   18.1750  -13.4190   -0.6350 N   0  0  0  0  0  0  0  0  0  0  0  0
   17.4270  -12.7720   -0.3910 H   0  0  0  0  0  0  0  0  0  0  0  0
   19.4030  -13.4850   -0.0480 C   0  0  0  0  0  0  0  0  0  0  0  0
   22.9930  -12.8850   -1.1300 C   0  0  0  0  0  0  0  0  0  0  0  0
   24.1260  -12.5880   -1.9660 O   0  0  0  0  0  0  0  0  0  0  0  0
   23.8960  -11.5770   -2.8670 C   0  0  0  0  0  0  0  0  0  0  0  0
   22.6540  -10.9900   -3.0990 C   0  0  0  0  0  0  0  0  0  0  0  0
   22.4890  -10.0010   -4.0560 C   0  0  0  0  0  0  0  0  0  0  0  0
   23.6520   -9.6270   -4.7710 C   0  0  0  0  0  0  0  0  0  0  0  0
   24.8750  -10.1520   -4.5780 N   0  0  0  0  0  0  0  0  0  0  0  0
   24.9620  -11.1110   -3.6250 C   0  0  0  0  0  0  0  0  0  0  0  0
   21.2030   -9.3810   -4.3320 C   0  0  0  0  0  0  0  0  0  0  0  0
   20.5220   -9.4750   -5.5190 C   0  0  0  0  0  0  0  0  0  0  0  0
   19.2350   -8.8450   -5.7700 C   0  0  0  0  0  0  0  0  0  0  0  0
   18.3320   -8.7360   -4.6860 C   0  0  0  0  0  0  0  0  0  0  0  0
   17.1110   -8.1380   -4.9190 C   0  0  0  0  0  0  0  0  0  0  0  0
   16.7070   -7.6490   -6.1050 N   0  0  0  0  0  0  0  0  0  0  0  0
   17.5970   -7.7690   -7.1280 C   0  0  0  0  0  0  0  0  0  0  0  0
   18.8440   -8.3470   -7.0070 C   0  0  0  0  0  0  0  0  0  0  0  0
  1 17  1  1  0  0  0
  1  6  1  0  0  0  0
  2  3  1  0  0  0  0
  2  1  1  0  0  0  0
  2  4  1  0  0  0  0
  5  2  1  0  0  0  0
  7  6  1  0  0  0  0
  7 16  2  0  0  0  0
  8 13  1  0  0  0  0
  8  7  1  0  0  0  0
  9  8  2  0  0  0  0
 10 11  2  0  0  0  0
 10  9  1  0  0  0  0
 11 12  1  0  0  0  0
 12 13  2  0  0  0  0
 13 14  1  0  0  0  0
 14 15  1  0  0  0  0
 14 16  1  0  0  0  0
 18 17  1  0  0  0  0
 19 18  1  0  0  0  0
 20 19  1  0  0  0  0
 21 20  2  0  0  0  0
 22 23  2  0  0  0  0
 22 21  1  0  0  0  0
 23 24  1  0  0  0  0
 24 19  2  0  0  0  0
 25 21  1  0  0  0  0
 26 25  2  0  0  0  0
 27 26  1  0  0  0  0
 27 28  2  0  0  0  0
 29 28  1  0  0  0  0
 30 29  2  0  0  0  0
 31 32  2  0  0  0  0
 31 30  1  0  0  0  0
 32 27  1  0  0  0  0
M  END
>  <minimizedAffinity>
-8.10393333

$$$$

 OpenBabel12271915513D

 32 35  0  0  1  0  0  0  0  0999 V2000
   22.6520   -9.2610   -1.1080 C   0  0  1  0  0  0  0  0  0  0  0  0
   23.7360   -8.6830   -1.9790 N   0  0  0  0  0  0  0  0  0  0  0  0
   24.5260   -9.3310   -2.0800 H   0  0  0  0  0  0  0  0  0  0  0  0
   24.0930   -7.8080   -1.5640 H   0  0  0  0  0  0  0  0  0  0  0  0
   23.4080   -8.4520   -2.9320 H   0  0  0  0  0  0  0  0  0  0  0  0
   23.2580   -9.9910    0.1090 C   0  0  0  0  0  0  0  0  0  0  0  0
   23.7910  -11.3260   -0.2340 C   0  0  0  0  0  0  0  0  0  0  0  0
   23.0150  -12.4870   -0.5420 C   0  0  0  0  0  0  0  0  0  0  0  0
   21.6230  -12.7400   -0.6380 C   0  0  0  0  0  0  0  0  0  0  0  0
   21.1970  -14.0190   -0.9520 C   0  0  0  0  0  0  0  0  0  0  0  0
   22.1130  -15.0470   -1.1560 C   0  0  0  0  0  0  0  0  0  0  0  0
   23.4820  -14.8290   -1.0570 C   0  0  0  0  0  0  0  0  0  0  0  0
   23.9150  -13.5240   -0.7510 C   0  0  0  0  0  0  0  0  0  0  0  0
   25.1840  -13.0260   -0.5720 N   0  0  0  0  0  0  0  0  0  0  0  0
   26.0290  -13.5910   -0.6300 H   0  0  0  0  0  0  0  0  0  0  0  0
   25.1260  -11.6960   -0.2810 C   0  0  0  0  0  0  0  0  0  0  0  0
   21.7750   -8.1200   -0.6210 C   0  0  0  0  0  0  0  0  0  0  0  0
   20.5320   -8.7130   -0.2050 O   0  0  0  0  0  0  0  0  0  0  0  0
   19.7160   -9.0730   -1.2490 C   0  0  0  0  0  0  0  0  0  0  0  0
   19.2070  -10.3550   -1.4510 C   0  0  0  0  0  0  0  0  0  0  0  0
   18.4220  -10.6540   -2.5540 C   0  0  0  0  0  0  0  0  0  0  0  0
   18.1710   -9.5860   -3.4480 C   0  0  0  0  0  0  0  0  0  0  0  0
   18.6280   -8.3300   -3.2940 N   0  0  0  0  0  0  0  0  0  0  0  0
   19.3840   -8.1100   -2.1920 C   0  0  0  0  0  0  0  0  0  0  0  0
   17.8890  -11.9840   -2.8010 C   0  0  0  0  0  0  0  0  0  0  0  0
   18.6290  -13.0690   -3.1970 C   0  0  0  0  0  0  0  0  0  0  0  0
   18.0720  -14.3900   -3.4360 C   0  0  0  0  0  0  0  0  0  0  0  0
   16.6630  -14.5240   -3.4240 C   0  0  0  0  0  0  0  0  0  0  0  0
   16.1300  -15.7750   -3.6520 C   0  0  0  0  0  0  0  0  0  0  0  0
   16.8490  -16.8880   -3.8860 N   0  0  0  0  0  0  0  0  0  0  0  0
   18.2010  -16.7280   -3.8920 C   0  0  0  0  0  0  0  0  0  0  0  0
   18.8400  -15.5240   -3.6770 C   0  0  0  0  0  0  0  0  0  0  0  0
  1 17  1  1  0  0  0
  1  6  1  0  0  0  0
  2  4  1  0  0  0  0
  2  1  1  0  0  0  0
  3  2  1  0  0  0  0
  5  2  1  0  0  0  0
  7  6  1  0  0  0  0
  8  7  1  0  0  0  0
  9  8  1  0  0  0  0
 10  9  2  0  0  0  0
 11 12  2  0  0  0  0
 11 10  1  0  0  0  0
 12 13  1  0  0  0  0
 13 14  1  0  0  0  0
 13  8  2  0  0  0  0
 14 16  1  0  0  0  0
 15 14  1  0  0  0  0
 16  7  2  0  0  0  0
 17 18  1  0  0  0  0
 19 18  1  0  0  0  0
 20 19  1  0  0  0  0
 21 20  2  0  0  0  0
 22 23  2  0  0  0  0
 22 21  1  0  0  0  0
 23 24  1  0  0  0  0
 24 19  2  0  0  0  0
 25 21  1  0  0  0  0
 26 25  2  0  0  0  0
 27 28  1  0  0  0  0
 27 26  1  0  0  0  0
 29 28  2  0  0  0  0
 30 29  1  0  0  0  0
 31 30  2  0  0  0  0
 31 32  1  0  0  0  0
 32 27  2  0  0  0  0
M  END
>  <minimizedAffinity>
-7.6821537

$$$$
