
 OpenBabel12271915443D

 22 23  0  0  1  0  0  0  0  0999 V2000
   22.2930  -14.4970   -1.8710 C   0  0  2  0  0  0  0  0  0  0  0  0
   21.4040  -13.5160   -1.0740 C   0  0  2  0  0  0  0  0  0  0  0  0
   20.0310  -13.8760   -1.3530 O   0  0  0  0  0  0  0  0  0  0  0  0
   20.0410  -15.2100   -1.8480 C   0  0  2  0  0  0  0  0  0  0  0  0
   21.3060  -15.3040   -2.6920 C   0  0  0  0  0  0  0  0  0  0  0  0
   18.7520  -15.5340   -2.5470 C   0  0  0  0  0  0  0  0  0  0  0  0
   18.7270  -16.5930   -3.4670 C   0  0  0  0  0  0  0  0  0  0  0  0
   17.5280  -16.9400   -4.1050 C   0  0  0  0  0  0  0  0  0  0  0  0
   17.5510  -18.1110   -5.0310 C   0  0  0  0  0  0  0  0  0  0  0  0
   16.4350  -16.1620   -3.8360 C   0  0  0  0  0  0  0  0  0  0  0  0
   16.4190  -15.1170   -2.9880 N   0  0  0  0  0  0  0  0  0  0  0  0
   17.5800  -14.8370   -2.3480 C   0  0  0  0  0  0  0  0  0  0  0  0
   15.2300  -16.3710   -4.4430 O   0  0  0  0  0  0  0  0  0  0  0  0
   15.4400  -16.6380   -5.3380 H   0  0  0  0  0  0  0  0  0  0  0  0
   22.9970  -15.3930   -0.9900 O   0  0  0  0  0  0  0  0  0  0  0  0
   22.4080  -16.1200   -0.7540 H   0  0  0  0  0  0  0  0  0  0  0  0
   21.6900  -12.0230   -1.3640 C   0  0  0  0  0  0  0  0  0  0  0  0
   22.3280  -11.3560   -0.3250 O   0  0  0  0  0  0  0  0  0  0  0  0
   23.9530  -11.2690   -0.4600 P   0  0  0  0  0  0  0  0  0  0  0  0
   24.2650   -9.8730    0.0420 O   0  0  0  0  0  0  0  0  0  0  0  0
   24.4750  -12.3830    0.4100 O   0  0  0  0  0  0  0  0  0  0  0  0
   24.2020  -11.4360   -1.9520 O   0  0  0  0  0  0  0  0  0  0  0  0
  1  2  1  0  0  0  0
  1 15  1  1  0  0  0
  2 17  1  6  0  0  0
  3  2  1  0  0  0  0
  4  6  1  6  0  0  0
  4  3  1  0  0  0  0
  5  1  1  0  0  0  0
  5  4  1  0  0  0  0
  6 12  2  0  0  0  0
  7  6  1  0  0  0  0
  8 10  1  0  0  0  0
  8  7  2  0  0  0  0
  9  8  1  0  0  0  0
 10 11  2  0  0  0  0
 11 12  1  0  0  0  0
 13 10  1  0  0  0  0
 14 13  1  0  0  0  0
 15 16  1  0  0  0  0
 17 18  1  0  0  0  0
 19 18  1  0  0  0  0
 19 20  1  0  0  0  0
 19 21  1  0  0  0  0
 22 19  2  0  0  0  0
M  END
>  <minimizedAffinity>
-8.05208969

$$$$

 OpenBabel12271915443D

 22 23  0  0  1  0  0  0  0  0999 V2000
   22.2600  -14.4090   -1.8020 C   0  0  2  0  0  0  0  0  0  0  0  0
   21.3380  -13.5620   -0.8950 C   0  0  2  0  0  0  0  0  0  0  0  0
   19.9810  -13.9640   -1.1880 O   0  0  0  0  0  0  0  0  0  0  0  0
   20.0480  -15.2380   -1.8180 C   0  0  2  0  0  0  0  0  0  0  0  0
   21.2990  -15.1790   -2.6860 C   0  0  0  0  0  0  0  0  0  0  0  0
   18.7640  -15.5580   -2.5260 C   0  0  0  0  0  0  0  0  0  0  0  0
   18.7440  -16.6130   -3.4510 C   0  0  0  0  0  0  0  0  0  0  0  0
   17.5480  -16.9560   -4.0980 C   0  0  0  0  0  0  0  0  0  0  0  0
   17.5760  -18.1230   -5.0300 C   0  0  0  0  0  0  0  0  0  0  0  0
   16.4540  -16.1780   -3.8340 C   0  0  0  0  0  0  0  0  0  0  0  0
   16.4340  -15.1360   -2.9820 N   0  0  0  0  0  0  0  0  0  0  0  0
   17.5910  -14.8610   -2.3330 C   0  0  0  0  0  0  0  0  0  0  0  0
   15.2530  -16.3820   -4.4500 O   0  0  0  0  0  0  0  0  0  0  0  0
   15.4690  -16.6460   -5.3450 H   0  0  0  0  0  0  0  0  0  0  0  0
   23.0270  -15.3510   -1.0280 O   0  0  0  0  0  0  0  0  0  0  0  0
   22.4810  -16.1280   -0.8590 H   0  0  0  0  0  0  0  0  0  0  0  0
   21.5410  -12.0340   -1.0340 C   0  0  0  0  0  0  0  0  0  0  0  0
   20.5260  -11.3870   -1.7290 O   0  0  0  0  0  0  0  0  0  0  0  0
   20.8530  -11.0870   -3.3000 P   0  0  0  0  0  0  0  0  0  0  0  0
   20.2940   -9.6920   -3.5060 O   0  0  0  0  0  0  0  0  0  0  0  0
   22.3520  -11.1870   -3.4110 O   0  0  0  0  0  0  0  0  0  0  0  0
   20.0700  -12.1580   -4.0450 O   0  0  0  0  0  0  0  0  0  0  0  0
  1 15  1  1  0  0  0
  1  2  1  0  0  0  0
  2 17  1  6  0  0  0
  3  2  1  0  0  0  0
  4  6  1  6  0  0  0
  4  3  1  0  0  0  0
  5  4  1  0  0  0  0
  5  1  1  0  0  0  0
  6 12  2  0  0  0  0
  7  6  1  0  0  0  0
  8 10  1  0  0  0  0
  8  7  2  0  0  0  0
  9  8  1  0  0  0  0
 10 11  2  0  0  0  0
 11 12  1  0  0  0  0
 13 10  1  0  0  0  0
 14 13  1  0  0  0  0
 15 16  1  0  0  0  0
 18 17  1  0  0  0  0
 19 18  1  0  0  0  0
 20 19  1  0  0  0  0
 21 19  1  0  0  0  0
 22 19  2  0  0  0  0
M  END
>  <minimizedAffinity>
-8.02497292

$$$$

 OpenBabel12271915443D

 22 23  0  0  1  0  0  0  0  0999 V2000
   23.7180  -14.0880   -1.5390 C   0  0  2  0  0  0  0  0  0  0  0  0
   23.1240  -13.1740   -0.4430 C   0  0  2  0  0  0  0  0  0  0  0  0
   21.6950  -13.3980   -0.4420 O   0  0  0  0  0  0  0  0  0  0  0  0
   21.4670  -14.6440   -1.0890 C   0  0  2  0  0  0  0  0  0  0  0  0
   22.5020  -14.7000   -2.2050 C   0  0  0  0  0  0  0  0  0  0  0  0
   20.0310  -14.7780   -1.5080 C   0  0  0  0  0  0  0  0  0  0  0  0
   19.7090  -15.6510   -2.5580 C   0  0  0  0  0  0  0  0  0  0  0  0
   18.3730  -15.8220   -2.9440 C   0  0  0  0  0  0  0  0  0  0  0  0
   18.0860  -16.8070   -4.0300 C   0  0  0  0  0  0  0  0  0  0  0  0
   17.4390  -15.0560   -2.3010 C   0  0  0  0  0  0  0  0  0  0  0  0
   17.7030  -14.1810   -1.3130 N   0  0  0  0  0  0  0  0  0  0  0  0
   18.9970  -14.0750   -0.9270 C   0  0  0  0  0  0  0  0  0  0  0  0
   16.1150  -15.0960   -2.6340 O   0  0  0  0  0  0  0  0  0  0  0  0
   16.0960  -15.2070   -3.5850 H   0  0  0  0  0  0  0  0  0  0  0  0
   24.5070  -15.1460   -0.9620 O   0  0  0  0  0  0  0  0  0  0  0  0
   23.9150  -15.8590   -0.6900 H   0  0  0  0  0  0  0  0  0  0  0  0
   23.4850  -11.6770   -0.6000 C   0  0  0  0  0  0  0  0  0  0  0  0
   24.5120  -11.2500    0.2330 O   0  0  0  0  0  0  0  0  0  0  0  0
   26.0090  -11.3660   -0.4080 P   0  0  0  0  0  0  0  0  0  0  0  0
   25.7520  -11.2680   -1.9000 O   0  0  0  0  0  0  0  0  0  0  0  0
   26.7730  -10.2080    0.1780 O   0  0  0  0  0  0  0  0  0  0  0  0
   26.4830  -12.7460    0.0250 O   0  0  0  0  0  0  0  0  0  0  0  0
  1 15  1  1  0  0  0
  1  2  1  0  0  0  0
  2 17  1  6  0  0  0
  2  3  1  0  0  0  0
  4  6  1  6  0  0  0
  4  3  1  0  0  0  0
  5  1  1  0  0  0  0
  5  4  1  0  0  0  0
  6 12  2  0  0  0  0
  7  6  1  0  0  0  0
  8  7  2  0  0  0  0
  8 10  1  0  0  0  0
  9  8  1  0  0  0  0
 10 11  2  0  0  0  0
 11 12  1  0  0  0  0
 13 10  1  0  0  0  0
 14 13  1  0  0  0  0
 15 16  1  0  0  0  0
 17 18  1  0  0  0  0
 19 22  1  0  0  0  0
 19 21  1  0  0  0  0
 19 18  1  0  0  0  0
 20 19  2  0  0  0  0
M  END
>  <minimizedAffinity>
-7.44134903

$$$$

 OpenBabel12271915443D

 22 23  0  0  1  0  0  0  0  0999 V2000
   24.3480  -13.8750   -1.2430 C   0  0  2  0  0  0  0  0  0  0  0  0
   23.8670  -12.8530   -0.1880 C   0  0  2  0  0  0  0  0  0  0  0  0
   22.4300  -12.9900   -0.0990 O   0  0  0  0  0  0  0  0  0  0  0  0
   22.0970  -14.2620   -0.6420 C   0  0  2  0  0  0  0  0  0  0  0  0
   23.0650  -14.4580   -1.8010 C   0  0  0  0  0  0  0  0  0  0  0  0
   20.6360  -14.3380   -0.9780 C   0  0  0  0  0  0  0  0  0  0  0  0
   20.2200  -15.1920   -2.0100 C   0  0  0  0  0  0  0  0  0  0  0  0
   18.8580  -15.3100   -2.3190 C   0  0  0  0  0  0  0  0  0  0  0  0
   18.4720  -16.2770   -3.3900 C   0  0  0  0  0  0  0  0  0  0  0  0
   17.9930  -14.5120   -1.6200 C   0  0  0  0  0  0  0  0  0  0  0  0
   18.3470  -13.6540   -0.6470 N   0  0  0  0  0  0  0  0  0  0  0  0
   19.6650  -13.5990   -0.3360 C   0  0  0  0  0  0  0  0  0  0  0  0
   16.6520  -14.5000   -1.8770 O   0  0  0  0  0  0  0  0  0  0  0  0
   16.5730  -14.6040   -2.8250 H   0  0  0  0  0  0  0  0  0  0  0  0
   25.1060  -14.9350   -0.6310 O   0  0  0  0  0  0  0  0  0  0  0  0
   24.4910  -15.5910   -0.2780 H   0  0  0  0  0  0  0  0  0  0  0  0
   24.3020  -11.3950   -0.4720 C   0  0  0  0  0  0  0  0  0  0  0  0
   23.4310  -10.6930   -1.2960 O   0  0  0  0  0  0  0  0  0  0  0  0
   22.9120   -9.2680   -0.6920 P   0  0  0  0  0  0  0  0  0  0  0  0
   21.5320   -9.1180   -1.3030 O   0  0  0  0  0  0  0  0  0  0  0  0
   22.9220   -9.4530    0.8030 O   0  0  0  0  0  0  0  0  0  0  0  0
   23.9150   -8.2580   -1.2320 O   0  0  0  0  0  0  0  0  0  0  0  0
  1 15  1  1  0  0  0
  1  2  1  0  0  0  0
  2 17  1  6  0  0  0
  2  3  1  0  0  0  0
  4  6  1  6  0  0  0
  4  3  1  0  0  0  0
  5  1  1  0  0  0  0
  5  4  1  0  0  0  0
  6 12  2  0  0  0  0
  7  6  1  0  0  0  0
  8  7  2  0  0  0  0
  8 10  1  0  0  0  0
  9  8  1  0  0  0  0
 10 11  2  0  0  0  0
 11 12  1  0  0  0  0
 13 10  1  0  0  0  0
 14 13  1  0  0  0  0
 15 16  1  0  0  0  0
 18 19  1  0  0  0  0
 18 17  1  0  0  0  0
 19 21  1  0  0  0  0
 20 19  2  0  0  0  0
 22 19  1  0  0  0  0
M  END
>  <minimizedAffinity>
-6.95585442

$$$$

 OpenBabel12271915443D

 22 23  0  0  1  0  0  0  0  0999 V2000
   19.7760  -13.7720   -0.7520 C   0  0  2  0  0  0  0  0  0  0  0  0
   20.4480  -14.9780   -1.4470 C   0  0  2  0  0  0  0  0  0  0  0  0
   21.8470  -14.6440   -1.6020 O   0  0  0  0  0  0  0  0  0  0  0  0
   22.1310  -13.5960   -0.6830 C   0  0  2  0  0  0  0  0  0  0  0  0
   20.8760  -12.7320   -0.6770 C   0  0  0  0  0  0  0  0  0  0  0  0
   23.4130  -12.9000   -1.0390 C   0  0  0  0  0  0  0  0  0  0  0  0
   23.5260  -12.2860   -2.2950 C   0  0  0  0  0  0  0  0  0  0  0  0
   24.6980  -11.5980   -2.6370 C   0  0  0  0  0  0  0  0  0  0  0  0
   24.7390  -10.9160   -3.9650 C   0  0  0  0  0  0  0  0  0  0  0  0
   25.7200  -11.6230   -1.7260 C   0  0  0  0  0  0  0  0  0  0  0  0
   25.6710  -12.2270   -0.5250 N   0  0  0  0  0  0  0  0  0  0  0  0
   24.5060  -12.8400   -0.2020 C   0  0  0  0  0  0  0  0  0  0  0  0
   26.9280  -11.0370   -1.9770 O   0  0  0  0  0  0  0  0  0  0  0  0
   27.0910  -11.1810   -2.9090 H   0  0  0  0  0  0  0  0  0  0  0  0
   19.3680  -14.1060    0.5880 O   0  0  0  0  0  0  0  0  0  0  0  0
   20.1300  -14.0180    1.1740 H   0  0  0  0  0  0  0  0  0  0  0  0
   19.7900  -15.3860   -2.7870 C   0  0  0  0  0  0  0  0  0  0  0  0
   18.5760  -16.0490   -2.6440 O   0  0  0  0  0  0  0  0  0  0  0  0
   17.3050  -15.3160   -3.3600 P   0  0  0  0  0  0  0  0  0  0  0  0
   16.4110  -14.9580   -2.1880 O   0  0  0  0  0  0  0  0  0  0  0  0
   17.8960  -14.1350   -4.0860 O   0  0  0  0  0  0  0  0  0  0  0  0
   16.7150  -16.4000   -4.2500 O   0  0  0  0  0  0  0  0  0  0  0  0
  1  5  1  0  0  0  0
  1 15  1  1  0  0  0
  2 17  1  6  0  0  0
  2  1  1  0  0  0  0
  3  2  1  0  0  0  0
  3  4  1  0  0  0  0
  4  6  1  6  0  0  0
  4  5  1  0  0  0  0
  6 12  2  0  0  0  0
  7  6  1  0  0  0  0
  8  7  2  0  0  0  0
  8 10  1  0  0  0  0
  9  8  1  0  0  0  0
 10 11  2  0  0  0  0
 11 12  1  0  0  0  0
 13 10  1  0  0  0  0
 14 13  1  0  0  0  0
 15 16  1  0  0  0  0
 17 18  1  0  0  0  0
 19 18  1  0  0  0  0
 19 20  1  0  0  0  0
 21 19  1  0  0  0  0
 22 19  2  0  0  0  0
M  END
>  <minimizedAffinity>
-6.8377552

$$$$

 OpenBabel12271915443D

 22 23  0  0  1  0  0  0  0  0999 V2000
   18.8610  -11.4880   -1.9960 C   0  0  2  0  0  0  0  0  0  0  0  0
   18.5780  -12.6100   -0.9730 C   0  0  2  0  0  0  0  0  0  0  0  0
   19.8630  -13.0800   -0.5030 O   0  0  0  0  0  0  0  0  0  0  0  0
   20.8140  -12.0640   -0.7980 C   0  0  2  0  0  0  0  0  0  0  0  0
   20.3710  -11.4920   -2.1390 C   0  0  0  0  0  0  0  0  0  0  0  0
   22.2140  -12.6030   -0.7360 C   0  0  0  0  0  0  0  0  0  0  0  0
   23.2680  -11.7200   -0.4570 C   0  0  0  0  0  0  0  0  0  0  0  0
   24.5800  -12.2040   -0.3570 C   0  0  0  0  0  0  0  0  0  0  0  0
   25.6530  -11.2280   -0.0020 C   0  0  0  0  0  0  0  0  0  0  0  0
   24.7710  -13.5350   -0.6110 C   0  0  0  0  0  0  0  0  0  0  0  0
   23.7970  -14.4120   -0.9160 N   0  0  0  0  0  0  0  0  0  0  0  0
   22.5340  -13.9250   -0.9550 C   0  0  0  0  0  0  0  0  0  0  0  0
   26.0130  -14.1040   -0.6010 O   0  0  0  0  0  0  0  0  0  0  0  0
   26.5990  -13.4410   -0.9650 H   0  0  0  0  0  0  0  0  0  0  0  0
   18.4520  -10.2040   -1.4870 O   0  0  0  0  0  0  0  0  0  0  0  0
   19.1530   -9.8610   -0.9180 H   0  0  0  0  0  0  0  0  0  0  0  0
   17.6960  -13.7590   -1.5180 C   0  0  0  0  0  0  0  0  0  0  0  0
   18.3910  -14.9320   -1.7820 O   0  0  0  0  0  0  0  0  0  0  0  0
   18.7520  -15.1770   -3.3550 P   0  0  0  0  0  0  0  0  0  0  0  0
   17.7660  -14.2810   -4.0780 O   0  0  0  0  0  0  0  0  0  0  0  0
   20.1950  -14.7650   -3.4910 O   0  0  0  0  0  0  0  0  0  0  0  0
   18.4750  -16.6590   -3.5650 O   0  0  0  0  0  0  0  0  0  0  0  0
  1 15  1  1  0  0  0
  1  2  1  0  0  0  0
  2 17  1  6  0  0  0
  2  3  1  0  0  0  0
  4  6  1  6  0  0  0
  4  3  1  0  0  0  0
  5  1  1  0  0  0  0
  5  4  1  0  0  0  0
  6  7  1  0  0  0  0
  7  8  2  0  0  0  0
  8  9  1  0  0  0  0
 10 13  1  0  0  0  0
 10  8  1  0  0  0  0
 11 10  2  0  0  0  0
 12 11  1  0  0  0  0
 12  6  2  0  0  0  0
 14 13  1  0  0  0  0
 15 16  1  0  0  0  0
 18 17  1  0  0  0  0
 19 18  1  0  0  0  0
 20 19  2  0  0  0  0
 21 19  1  0  0  0  0
 22 19  1  0  0  0  0
M  END
>  <minimizedAffinity>
-6.75711727

$$$$

 OpenBabel12271915443D

 22 23  0  0  1  0  0  0  0  0999 V2000
   22.4280  -14.5400   -1.8060 C   0  0  2  0  0  0  0  0  0  0  0  0
   21.5040  -13.8080   -0.8060 C   0  0  2  0  0  0  0  0  0  0  0  0
   20.1490  -14.1920   -1.1320 O   0  0  0  0  0  0  0  0  0  0  0  0
   20.2260  -15.3890   -1.8980 C   0  0  2  0  0  0  0  0  0  0  0  0
   21.4690  -15.2200   -2.7620 C   0  0  0  0  0  0  0  0  0  0  0  0
   18.9390  -15.6450   -2.6280 C   0  0  0  0  0  0  0  0  0  0  0  0
   17.8690  -14.7550   -2.4510 C   0  0  0  0  0  0  0  0  0  0  0  0
   16.6710  -14.9510   -3.1500 C   0  0  0  0  0  0  0  0  0  0  0  0
   15.5870  -13.9400   -2.9640 C   0  0  0  0  0  0  0  0  0  0  0  0
   16.5870  -16.0670   -3.9370 C   0  0  0  0  0  0  0  0  0  0  0  0
   17.5730  -16.9660   -4.1110 N   0  0  0  0  0  0  0  0  0  0  0  0
   18.7370  -16.7230   -3.4630 C   0  0  0  0  0  0  0  0  0  0  0  0
   15.4480  -16.3900   -4.6180 O   0  0  0  0  0  0  0  0  0  0  0  0
   14.7270  -16.1340   -4.0430 H   0  0  0  0  0  0  0  0  0  0  0  0
   23.2120  -15.5510   -1.1440 O   0  0  0  0  0  0  0  0  0  0  0  0
   22.6750  -16.3490   -1.0580 H   0  0  0  0  0  0  0  0  0  0  0  0
   21.6890  -12.2720   -0.7780 C   0  0  0  0  0  0  0  0  0  0  0  0
   21.1910  -11.6200   -1.9000 O   0  0  0  0  0  0  0  0  0  0  0  0
   20.1570  -10.3970   -1.5820 P   0  0  0  0  0  0  0  0  0  0  0  0
   18.9640  -11.1070   -0.9720 O   0  0  0  0  0  0  0  0  0  0  0  0
   20.9040   -9.4930   -0.6370 O   0  0  0  0  0  0  0  0  0  0  0  0
   19.8610   -9.8060   -2.9530 O   0  0  0  0  0  0  0  0  0  0  0  0
  1 15  1  1  0  0  0
  1  2  1  0  0  0  0
  2 17  1  6  0  0  0
  3  2  1  0  0  0  0
  4  6  1  6  0  0  0
  4  3  1  0  0  0  0
  5  4  1  0  0  0  0
  5  1  1  0  0  0  0
  6  7  1  0  0  0  0
  8  9  1  0  0  0  0
  8  7  2  0  0  0  0
 10  8  1  0  0  0  0
 11 10  2  0  0  0  0
 11 12  1  0  0  0  0
 12  6  2  0  0  0  0
 13 14  1  0  0  0  0
 13 10  1  0  0  0  0
 15 16  1  0  0  0  0
 18 19  1  0  0  0  0
 18 17  1  0  0  0  0
 19 20  1  0  0  0  0
 19 21  1  0  0  0  0
 22 19  2  0  0  0  0
M  END
>  <minimizedAffinity>
-6.68694496

$$$$

 OpenBabel12271915443D

 22 23  0  0  1  0  0  0  0  0999 V2000
   18.8940  -12.3650   -1.7450 C   0  0  2  0  0  0  0  0  0  0  0  0
   19.4360  -13.7680   -1.3890 C   0  0  2  0  0  0  0  0  0  0  0  0
   20.7860  -13.5830   -0.9040 O   0  0  0  0  0  0  0  0  0  0  0  0
   20.9100  -12.2180   -0.5230 C   0  0  2  0  0  0  0  0  0  0  0  0
   20.0860  -11.4500   -1.5490 C   0  0  0  0  0  0  0  0  0  0  0  0
   22.3530  -11.8220   -0.4010 C   0  0  0  0  0  0  0  0  0  0  0  0
   23.3290  -12.8270   -0.3270 C   0  0  0  0  0  0  0  0  0  0  0  0
   24.6860  -12.4840   -0.2500 C   0  0  0  0  0  0  0  0  0  0  0  0
   25.6820  -13.5970   -0.2310 C   0  0  0  0  0  0  0  0  0  0  0  0
   24.9860  -11.1500   -0.1830 C   0  0  0  0  0  0  0  0  0  0  0  0
   24.0830  -10.1530   -0.2160 N   0  0  0  0  0  0  0  0  0  0  0  0
   22.7840  -10.5140   -0.3420 C   0  0  0  0  0  0  0  0  0  0  0  0
   26.2680  -10.7020   -0.0470 O   0  0  0  0  0  0  0  0  0  0  0  0
   26.7000  -11.3360    0.5250 H   0  0  0  0  0  0  0  0  0  0  0  0
   17.8530  -11.9640   -0.8340 O   0  0  0  0  0  0  0  0  0  0  0  0
   18.2620  -11.6030   -0.0370 H   0  0  0  0  0  0  0  0  0  0  0  0
   19.3630  -14.7900   -2.5490 C   0  0  0  0  0  0  0  0  0  0  0  0
   18.3340  -15.7150   -2.4260 O   0  0  0  0  0  0  0  0  0  0  0  0
   16.9210  -15.2660   -3.1110 P   0  0  0  0  0  0  0  0  0  0  0  0
   16.1350  -14.7080   -1.9420 O   0  0  0  0  0  0  0  0  0  0  0  0
   17.3020  -14.2510   -4.1570 O   0  0  0  0  0  0  0  0  0  0  0  0
   16.3470  -16.5700   -3.6470 O   0  0  0  0  0  0  0  0  0  0  0  0
  1  5  1  0  0  0  0
  1  2  1  0  0  0  0
  1 15  1  1  0  0  0
  2 17  1  6  0  0  0
  2  3  1  0  0  0  0
  3  4  1  0  0  0  0
  4  6  1  6  0  0  0
  5  4  1  0  0  0  0
  6 12  2  0  0  0  0
  6  7  1  0  0  0  0
  7  8  2  0  0  0  0
  8  9  1  0  0  0  0
  8 10  1  0  0  0  0
 10 13  1  0  0  0  0
 11 10  2  0  0  0  0
 12 11  1  0  0  0  0
 13 14  1  0  0  0  0
 15 16  1  0  0  0  0
 17 18  1  0  0  0  0
 19 18  1  0  0  0  0
 19 20  1  0  0  0  0
 21 19  2  0  0  0  0
 22 19  1  0  0  0  0
M  END
>  <minimizedAffinity>
-6.35550976

$$$$

 OpenBabel12271915443D

 22 23  0  0  1  0  0  0  0  0999 V2000
   20.7320  -11.3140   -2.7290 C   0  0  2  0  0  0  0  0  0  0  0  0
   21.5570  -12.5880   -2.4350 C   0  0  2  0  0  0  0  0  0  0  0  0
   20.6940  -13.7160   -2.7050 O   0  0  0  0  0  0  0  0  0  0  0  0
   19.6400  -13.2470   -3.5370 C   0  0  2  0  0  0  0  0  0  0  0  0
   19.3430  -11.8390   -3.0350 C   0  0  0  0  0  0  0  0  0  0  0  0
   18.4860  -14.2070   -3.5390 C   0  0  0  0  0  0  0  0  0  0  0  0
   18.6950  -15.5190   -3.9910 C   0  0  0  0  0  0  0  0  0  0  0  0
   17.6440  -16.4450   -3.9670 C   0  0  0  0  0  0  0  0  0  0  0  0
   17.9410  -17.8410   -4.4080 C   0  0  0  0  0  0  0  0  0  0  0  0
   16.4220  -15.9870   -3.5550 C   0  0  0  0  0  0  0  0  0  0  0  0
   16.1650  -14.7310   -3.1460 N   0  0  0  0  0  0  0  0  0  0  0  0
   17.2130  -13.8720   -3.1320 C   0  0  0  0  0  0  0  0  0  0  0  0
   15.3140  -16.7850   -3.5470 O   0  0  0  0  0  0  0  0  0  0  0  0
   15.3980  -17.3450   -4.3190 H   0  0  0  0  0  0  0  0  0  0  0  0
   21.2310  -10.6290   -3.8930 O   0  0  0  0  0  0  0  0  0  0  0  0
   20.8610  -11.0490   -4.6800 H   0  0  0  0  0  0  0  0  0  0  0  0
   22.1620  -12.6380   -1.0110 C   0  0  0  0  0  0  0  0  0  0  0  0
   23.1610  -13.5900   -0.8520 O   0  0  0  0  0  0  0  0  0  0  0  0
   24.6630  -12.9820   -0.6480 P   0  0  0  0  0  0  0  0  0  0  0  0
   25.5190  -14.2240   -0.4970 O   0  0  0  0  0  0  0  0  0  0  0  0
   24.9300  -12.1800   -1.8950 O   0  0  0  0  0  0  0  0  0  0  0  0
   24.5550  -12.1730    0.6370 O   0  0  0  0  0  0  0  0  0  0  0  0
  1 15  1  6  0  0  0
  1  2  1  0  0  0  0
  2 17  1  1  0  0  0
  3  2  1  0  0  0  0
  4  6  1  1  0  0  0
  4  5  1  0  0  0  0
  4  3  1  0  0  0  0
  5  1  1  0  0  0  0
  6 12  2  0  0  0  0
  7  8  2  0  0  0  0
  7  6  1  0  0  0  0
  8 10  1  0  0  0  0
  9  8  1  0  0  0  0
 10 13  1  0  0  0  0
 10 11  2  0  0  0  0
 11 12  1  0  0  0  0
 14 13  1  0  0  0  0
 16 15  1  0  0  0  0
 17 18  1  0  0  0  0
 18 19  1  0  0  0  0
 19 20  1  0  0  0  0
 19 22  1  0  0  0  0
 21 19  2  0  0  0  0
M  END
>  <minimizedAffinity>
-6.32850266

$$$$
