
 OpenBabel12271915463D

 42 46  0  0  1  0  0  0  0  0999 V2000
   19.3360  -11.2160   -1.3830 C   0  0  1  0  0  0  0  0  0  0  0  0
   20.4800  -10.6850   -2.3930 C   0  0  1  0  0  0  0  0  0  0  0  0
   20.0970   -9.8620   -3.6580 C   0  0  0  0  0  0  0  0  0  0  0  0
   18.7650   -9.6150   -3.9600 C   0  0  0  0  0  0  0  0  0  0  0  0
   18.4470   -8.8620   -5.0620 C   0  0  0  0  0  0  0  0  0  0  0  0
   17.1910   -8.5550   -5.4690 O   0  0  0  0  0  0  0  0  0  0  0  0
   17.4570   -7.5040   -6.4590 C   0  0  0  0  0  0  0  0  0  0  0  0
   18.8660   -7.6350   -6.8930 O   0  0  0  0  0  0  0  0  0  0  0  0
   19.3910   -8.3460   -5.8600 C   0  0  0  0  0  0  0  0  0  0  0  0
   20.7160   -8.5520   -5.6120 C   0  0  0  0  0  0  0  0  0  0  0  0
   21.1030   -9.3500   -4.4550 C   0  0  0  0  0  0  0  0  0  0  0  0
   22.5920   -9.4180   -4.3000 C   0  0  0  0  0  0  0  0  0  0  0  0
   23.0190   -9.5680   -2.9440 C   0  0  0  0  0  0  0  0  0  0  0  0
   22.0830   -8.7690   -2.0190 N   0  0  2  0  0  0  0  0  0  0  0  0
   21.5190   -8.0610   -2.6160 H   0  0  0  0  0  0  0  0  0  0  0  0
   22.7880   -8.2290   -0.9040 C   0  0  0  0  0  0  0  0  0  0  0  0
   23.0630   -9.4700   -0.0680 C   0  0  0  0  0  0  0  0  0  0  0  0
   21.9790  -10.4690   -0.3790 C   0  0  0  0  0  0  0  0  0  0  0  0
   21.0740   -9.7400   -1.4130 C   0  0  2  0  0  0  0  0  0  0  0  0
   19.9680   -9.0810   -0.7320 C   0  0  0  0  0  0  0  0  0  0  0  0
   18.9250   -9.8910   -0.7550 C   0  0  2  0  0  0  0  0  0  0  0  0
   17.6660   -9.7280   -0.2830 O   0  0  0  0  0  0  0  0  0  0  0  0
   16.7190   -9.0170   -1.1830 C   0  0  0  0  0  0  0  0  0  0  0  0
   18.2710  -12.0500   -2.0190 O   0  0  0  0  0  0  0  0  0  0  0  0
   18.4060  -13.3070   -1.5470 C   0  0  0  0  0  0  0  0  0  0  0  0
   18.4750  -13.7250   -0.4280 O   0  0  0  0  0  0  0  0  0  0  0  0
   18.5910  -14.3450   -2.7260 C   0  0  2  0  0  0  0  0  0  0  0  0
   17.8610  -13.7280   -3.9010 O   0  0  0  0  0  0  0  0  0  0  0  0
   16.9260  -13.8150   -3.7190 H   0  0  0  0  0  0  0  0  0  0  0  0
   17.9090  -15.6500   -2.5670 C   0  0  0  0  0  0  0  0  0  0  0  0
   17.1620  -16.0620   -3.8790 C   0  0  0  0  0  0  0  0  0  0  0  0
   15.9660  -15.6810   -4.0150 O   0  0  0  0  0  0  0  0  0  0  0  0
   17.8940  -16.7940   -4.6820 O   0  0  0  0  0  0  0  0  0  0  0  0
   17.5110  -18.2620   -4.8020 C   0  0  0  0  0  0  0  0  0  0  0  0
   20.0340  -14.6120   -3.1400 C   0  0  0  0  0  0  0  0  0  0  0  0
   20.8960  -15.4800   -2.2210 C   0  0  0  0  0  0  0  0  0  0  0  0
   22.4020  -15.3420   -2.4880 C   0  0  0  0  0  0  0  0  0  0  0  0
   23.0530  -14.4060   -1.4840 C   0  0  0  0  0  0  0  0  0  0  0  0
   23.4140  -13.1140   -2.1910 C   0  0  0  0  0  0  0  0  0  0  0  0
   22.1440  -14.0840   -0.2870 C   0  0  0  0  0  0  0  0  0  0  0  0
   24.2950  -14.9960   -0.9720 O   0  0  0  0  0  0  0  0  0  0  0  0
   24.9370  -14.8660   -1.6240 H   0  0  0  0  0  0  0  0  0  0  0  0
  1 24  1  6  0  0  0
  1 21  1  0  0  0  0
  2 19  1  1  0  0  0
  2  1  1  0  0  0  0
  3  2  1  0  0  0  0
  4  3  1  0  0  0  0
  5  4  2  0  0  0  0
  6  5  1  0  0  0  0
  7  6  1  0  0  0  0
  8  7  1  0  0  0  0
  8  9  1  0  0  0  0
  9 10  2  0  0  0  0
  9  5  1  0  0  0  0
 10 11  1  0  0  0  0
 11 12  1  0  0  0  0
 11  3  2  0  0  0  0
 12 13  1  0  0  0  0
 13 14  1  0  0  0  0
 14 19  1  1  0  0  0
 14 16  1  0  0  0  0
 15 14  1  0  0  0  0
 16 17  1  0  0  0  0
 18 17  1  0  0  0  0
 19 20  1  1  0  0  0
 19 18  1  0  0  0  0
 21 20  1  0  0  0  0
 21 22  1  1  0  0  0
 23 22  1  0  0  0  0
 24 25  1  0  0  0  0
 25 26  2  0  0  0  0
 27 35  1  6  0  0  0
 27 30  1  0  0  0  0
 27 25  1  0  0  0  0
 28 29  1  0  0  0  0
 28 27  1  0  0  0  0
 31 30  1  0  0  0  0
 32 31  2  0  0  0  0
 33 31  1  0  0  0  0
 34 33  1  0  0  0  0
 35 36  1  0  0  0  0
 37 36  1  0  0  0  0
 37 38  1  0  0  0  0
 38 41  1  0  0  0  0
 38 40  1  0  0  0  0
 39 38  1  0  0  0  0
 42 41  1  0  0  0  0
M  END
>  <minimizedAffinity>
-7.88264847

$$$$

 OpenBabel12271915463D

 42 46  0  0  1  0  0  0  0  0999 V2000
   21.5810  -10.6720   -1.7230 C   0  0  1  0  0  0  0  0  0  0  0  0
   23.0050  -10.7840   -2.4770 C   0  0  1  0  0  0  0  0  0  0  0  0
   23.5760   -9.5730   -3.2720 C   0  0  0  0  0  0  0  0  0  0  0  0
   22.8460   -8.3980   -3.3830 C   0  0  0  0  0  0  0  0  0  0  0  0
   23.3770   -7.3300   -4.0620 C   0  0  0  0  0  0  0  0  0  0  0  0
   22.7670   -6.1340   -4.2470 O   0  0  0  0  0  0  0  0  0  0  0  0
   23.8840   -5.3110   -4.7280 C   0  0  0  0  0  0  0  0  0  0  0  0
   24.9310   -6.2230   -5.2430 O   0  0  0  0  0  0  0  0  0  0  0  0
   24.5940   -7.3830   -4.6190 C   0  0  0  0  0  0  0  0  0  0  0  0
   25.3590   -8.5090   -4.5400 C   0  0  0  0  0  0  0  0  0  0  0  0
   24.8340   -9.6720   -3.8340 C   0  0  0  0  0  0  0  0  0  0  0  0
   25.8300  -10.7910   -3.7890 C   0  0  0  0  0  0  0  0  0  0  0  0
   25.7000  -11.6270   -2.6370 C   0  0  0  0  0  0  0  0  0  0  0  0
   25.3010  -10.7680   -1.4220 N   0  0  2  0  0  0  0  0  0  0  0  0
   25.4970   -9.7260   -1.6490 H   0  0  0  0  0  0  0  0  0  0  0  0
   25.8750  -11.2690   -0.2180 C   0  0  0  0  0  0  0  0  0  0  0  0
   25.0670  -12.5360    0.0190 C   0  0  0  0  0  0  0  0  0  0  0  0
   23.7200  -12.3350   -0.6240 C   0  0  0  0  0  0  0  0  0  0  0  0
   23.7940  -10.9020   -1.2240 C   0  0  2  0  0  0  0  0  0  0  0  0
   23.2430   -9.9380   -0.2810 C   0  0  0  0  0  0  0  0  0  0  0  0
   21.9740   -9.7360   -0.5870 C   0  0  2  0  0  0  0  0  0  0  0  0
   21.0470   -8.9210   -0.0310 O   0  0  0  0  0  0  0  0  0  0  0  0
   20.9030   -7.5780   -0.6560 C   0  0  0  0  0  0  0  0  0  0  0  0
   20.4350  -10.2710   -2.5950 O   0  0  0  0  0  0  0  0  0  0  0  0
   19.7620  -11.3940   -2.9200 C   0  0  0  0  0  0  0  0  0  0  0  0
   19.9400  -12.1950   -3.7910 O   0  0  0  0  0  0  0  0  0  0  0  0
   18.4780  -11.5740   -2.0150 C   0  0  2  0  0  0  0  0  0  0  0  0
   17.3690  -11.9260   -2.9830 O   0  0  0  0  0  0  0  0  0  0  0  0
   17.1530  -11.1240   -3.4570 H   0  0  0  0  0  0  0  0  0  0  0  0
   17.9600  -10.3520   -1.3560 C   0  0  0  0  0  0  0  0  0  0  0  0
   16.8320   -9.6840   -2.2100 C   0  0  0  0  0  0  0  0  0  0  0  0
   17.1850   -8.9120   -3.1450 O   0  0  0  0  0  0  0  0  0  0  0  0
   15.6260  -10.0050   -1.8140 O   0  0  0  0  0  0  0  0  0  0  0  0
   14.6580   -8.8540   -1.5780 C   0  0  0  0  0  0  0  0  0  0  0  0
   18.5700  -12.6740   -0.9630 C   0  0  0  0  0  0  0  0  0  0  0  0
   17.8000  -13.9730   -1.2110 C   0  0  0  0  0  0  0  0  0  0  0  0
   18.5760  -14.9890   -2.0610 C   0  0  0  0  0  0  0  0  0  0  0  0
   17.8240  -15.3260   -3.3370 C   0  0  0  0  0  0  0  0  0  0  0  0
   18.4100  -16.5960   -3.9220 C   0  0  0  0  0  0  0  0  0  0  0  0
   16.3170  -15.5280   -3.1090 C   0  0  0  0  0  0  0  0  0  0  0  0
   18.0000  -14.2580   -4.3260 O   0  0  0  0  0  0  0  0  0  0  0  0
   18.8370  -14.3770   -4.6990 H   0  0  0  0  0  0  0  0  0  0  0  0
  1 24  1  6  0  0  0
  1 21  1  0  0  0  0
  2  1  1  0  0  0  0
  2 19  1  1  0  0  0
  3  2  1  0  0  0  0
  4  3  1  0  0  0  0
  5  4  2  0  0  0  0
  6  5  1  0  0  0  0
  7  6  1  0  0  0  0
  8  7  1  0  0  0  0
  8  9  1  0  0  0  0
  9 10  2  0  0  0  0
  9  5  1  0  0  0  0
 10 11  1  0  0  0  0
 11 12  1  0  0  0  0
 11  3  2  0  0  0  0
 12 13  1  0  0  0  0
 13 14  1  0  0  0  0
 14 19  1  1  0  0  0
 14 16  1  0  0  0  0
 15 14  1  0  0  0  0
 16 17  1  0  0  0  0
 18 17  1  0  0  0  0
 19 18  1  1  0  0  0
 19 20  1  0  0  0  0
 21 20  1  0  0  0  0
 21 22  1  1  0  0  0
 23 22  1  0  0  0  0
 25 24  1  0  0  0  0
 25 27  1  0  0  0  0
 26 25  2  0  0  0  0
 27 30  1  1  0  0  0
 27 35  1  0  0  0  0
 28 27  1  0  0  0  0
 29 28  1  0  0  0  0
 31 33  1  0  0  0  0
 31 30  1  0  0  0  0
 32 31  2  0  0  0  0
 33 34  1  0  0  0  0
 36 35  1  0  0  0  0
 37 36  1  0  0  0  0
 38 40  1  0  0  0  0
 38 37  1  0  0  0  0
 39 38  1  0  0  0  0
 41 38  1  0  0  0  0
 42 41  1  0  0  0  0
M  END
>  <minimizedAffinity>
-7.56400537

$$$$

 OpenBabel12271915463D

 42 46  0  0  1  0  0  0  0  0999 V2000
   24.4340  -11.6370   -1.2940 C   0  0  1  0  0  0  0  0  0  0  0  0
   25.6760  -10.9110   -2.0290 C   0  0  1  0  0  0  0  0  0  0  0  0
   25.4580   -9.5970   -2.8340 C   0  0  0  0  0  0  0  0  0  0  0  0
   24.1860   -9.0580   -2.9720 C   0  0  0  0  0  0  0  0  0  0  0  0
   24.0170   -7.8830   -3.6590 C   0  0  0  0  0  0  0  0  0  0  0  0
   22.8320   -7.2580   -3.8690 O   0  0  0  0  0  0  0  0  0  0  0  0
   23.2790   -5.9450   -4.3490 C   0  0  0  0  0  0  0  0  0  0  0  0
   24.6690   -6.0890   -4.8370 O   0  0  0  0  0  0  0  0  0  0  0  0
   25.0520   -7.2280   -4.2010 C   0  0  0  0  0  0  0  0  0  0  0  0
   26.3240   -7.7060   -4.0970 C   0  0  0  0  0  0  0  0  0  0  0  0
   26.5530   -8.9550   -3.3800 C   0  0  0  0  0  0  0  0  0  0  0  0
   28.0110   -9.2940   -3.3070 C   0  0  0  0  0  0  0  0  0  0  0  0
   28.3660  -10.0460   -2.1450 C   0  0  0  0  0  0  0  0  0  0  0  0
   27.5230   -9.5690   -0.9470 N   0  0  2  0  0  0  0  0  0  0  0  0
   27.0860   -8.6060   -1.1870 H   0  0  0  0  0  0  0  0  0  0  0  0
   28.2590   -9.6410    0.2710 C   0  0  0  0  0  0  0  0  0  0  0  0
   28.3250  -11.1410    0.5160 C   0  0  0  0  0  0  0  0  0  0  0  0
   27.1210  -11.7570   -0.1460 C   0  0  0  0  0  0  0  0  0  0  0  0
   26.3650  -10.5470   -0.7650 C   0  0  2  0  0  0  0  0  0  0  0  0
   25.3430  -10.0720    0.1570 C   0  0  0  0  0  0  0  0  0  0  0  0
   24.1950  -10.6410   -0.1670 C   0  0  2  0  0  0  0  0  0  0  0  0
   22.9580  -10.5060    0.3660 O   0  0  0  0  0  0  0  0  0  0  0  0
   22.2630   -9.2210    0.0830 C   0  0  0  0  0  0  0  0  0  0  0  0
   23.2830  -11.9750   -2.1850 O   0  0  0  0  0  0  0  0  0  0  0  0
   22.8880  -13.2280   -1.8790 C   0  0  0  0  0  0  0  0  0  0  0  0
   23.5170  -14.2290   -1.6960 O   0  0  0  0  0  0  0  0  0  0  0  0
   21.3110  -13.3440   -1.8670 C   0  0  2  0  0  0  0  0  0  0  0  0
   20.9060  -13.2570   -3.3230 O   0  0  0  0  0  0  0  0  0  0  0  0
   21.0250  -12.3450   -3.5870 H   0  0  0  0  0  0  0  0  0  0  0  0
   20.5720  -12.2150   -1.2550 C   0  0  0  0  0  0  0  0  0  0  0  0
   19.8250  -11.3730   -2.3400 C   0  0  0  0  0  0  0  0  0  0  0  0
   18.6790  -11.7640   -2.6990 O   0  0  0  0  0  0  0  0  0  0  0  0
   20.5210  -10.3480   -2.7680 O   0  0  0  0  0  0  0  0  0  0  0  0
   20.2540   -9.8940   -4.1970 C   0  0  0  0  0  0  0  0  0  0  0  0
   20.7570  -14.6410   -1.2870 C   0  0  0  0  0  0  0  0  0  0  0  0
   19.8720  -15.5090   -2.1840 C   0  0  0  0  0  0  0  0  0  0  0  0
   18.3790  -15.1580   -2.0910 C   0  0  0  0  0  0  0  0  0  0  0  0
   17.7020  -15.2810   -3.4450 C   0  0  0  0  0  0  0  0  0  0  0  0
   18.1260  -16.5920   -4.0790 C   0  0  0  0  0  0  0  0  0  0  0  0
   16.1680  -15.2430   -3.3540 C   0  0  0  0  0  0  0  0  0  0  0  0
   18.1370  -14.1970   -4.3300 O   0  0  0  0  0  0  0  0  0  0  0  0
   18.9750  -14.4310   -4.6430 H   0  0  0  0  0  0  0  0  0  0  0  0
  1 24  1  6  0  0  0
  1 21  1  0  0  0  0
  2  1  1  0  0  0  0
  2 19  1  1  0  0  0
  3  2  1  0  0  0  0
  4  3  1  0  0  0  0
  5  4  2  0  0  0  0
  6  5  1  0  0  0  0
  7  6  1  0  0  0  0
  8  7  1  0  0  0  0
  8  9  1  0  0  0  0
  9 10  2  0  0  0  0
  9  5  1  0  0  0  0
 10 11  1  0  0  0  0
 11 12  1  0  0  0  0
 11  3  2  0  0  0  0
 12 13  1  0  0  0  0
 13 14  1  0  0  0  0
 14 19  1  1  0  0  0
 14 16  1  0  0  0  0
 15 14  1  0  0  0  0
 16 17  1  0  0  0  0
 18 17  1  0  0  0  0
 19 18  1  1  0  0  0
 19 20  1  0  0  0  0
 21 20  1  0  0  0  0
 21 22  1  1  0  0  0
 23 22  1  0  0  0  0
 24 25  1  0  0  0  0
 25 27  1  0  0  0  0
 25 26  2  0  0  0  0
 27 35  1  1  0  0  0
 27 30  1  0  0  0  0
 28 27  1  0  0  0  0
 29 28  1  0  0  0  0
 31 30  1  0  0  0  0
 32 31  2  0  0  0  0
 33 31  1  0  0  0  0
 34 33  1  0  0  0  0
 36 37  1  0  0  0  0
 36 35  1  0  0  0  0
 38 40  1  0  0  0  0
 38 37  1  0  0  0  0
 39 38  1  0  0  0  0
 41 38  1  0  0  0  0
 42 41  1  0  0  0  0
M  END
>  <minimizedAffinity>
-7.13885927

$$$$

 OpenBabel12271915463D

 42 46  0  0  1  0  0  0  0  0999 V2000
   21.6000   -9.2900   -2.4890 C   0  0  1  0  0  0  0  0  0  0  0  0
   23.0470   -9.3000   -1.7700 C   0  0  1  0  0  0  0  0  0  0  0  0
   23.7190  -10.6460   -1.3660 C   0  0  0  0  0  0  0  0  0  0  0  0
   23.0610  -11.8510   -1.5750 C   0  0  0  0  0  0  0  0  0  0  0  0
   23.6810  -13.0290   -1.2410 C   0  0  0  0  0  0  0  0  0  0  0  0
   23.1480  -14.2670   -1.3880 O   0  0  0  0  0  0  0  0  0  0  0  0
   24.3300  -15.1150   -1.1880 C   0  0  0  0  0  0  0  0  0  0  0  0
   25.3440  -14.3180   -0.4620 O   0  0  0  0  0  0  0  0  0  0  0  0
   24.9150  -13.0540   -0.7220 C   0  0  0  0  0  0  0  0  0  0  0  0
   25.6110  -11.9040   -0.4960 C   0  0  0  0  0  0  0  0  0  0  0  0
   24.9920  -10.6260   -0.8300 C   0  0  0  0  0  0  0  0  0  0  0  0
   25.9210   -9.4760   -0.5800 C   0  0  0  0  0  0  0  0  0  0  0  0
   25.6940   -8.3600   -1.4430 C   0  0  0  0  0  0  0  0  0  0  0  0
   25.2930   -8.8660   -2.8420 N   0  0  2  0  0  0  0  0  0  0  0  0
   25.5570   -9.9140   -2.9250 H   0  0  0  0  0  0  0  0  0  0  0  0
   25.7870   -8.0090   -3.8680 C   0  0  0  0  0  0  0  0  0  0  0  0
   24.8990   -6.7830   -3.7150 C   0  0  0  0  0  0  0  0  0  0  0  0
   23.5940   -7.2460   -3.1220 C   0  0  0  0  0  0  0  0  0  0  0  0
   23.7740   -8.7820   -2.9560 C   0  0  2  0  0  0  0  0  0  0  0  0
   23.2390   -9.4760   -4.1200 C   0  0  0  0  0  0  0  0  0  0  0  0
   21.9980   -9.8390   -3.8530 C   0  0  2  0  0  0  0  0  0  0  0  0
   21.0960  -10.5240   -4.5950 O   0  0  0  0  0  0  0  0  0  0  0  0
   20.4820   -9.7780   -5.7270 C   0  0  0  0  0  0  0  0  0  0  0  0
   20.5180   -9.9950   -1.7380 O   0  0  0  0  0  0  0  0  0  0  0  0
   19.3680   -9.3260   -1.9620 C   0  0  0  0  0  0  0  0  0  0  0  0
   19.1640   -8.1770   -2.2250 O   0  0  0  0  0  0  0  0  0  0  0  0
   18.1100  -10.2570   -1.7330 C   0  0  2  0  0  0  0  0  0  0  0  0
   17.7270  -10.7380   -3.1160 O   0  0  0  0  0  0  0  0  0  0  0  0
   17.3300   -9.9930   -3.5650 H   0  0  0  0  0  0  0  0  0  0  0  0
   16.8730   -9.5890   -1.2660 C   0  0  0  0  0  0  0  0  0  0  0  0
   15.8290   -9.4590   -2.4230 C   0  0  0  0  0  0  0  0  0  0  0  0
   15.9640   -8.4950   -3.2290 O   0  0  0  0  0  0  0  0  0  0  0  0
   14.9040  -10.3860   -2.3910 O   0  0  0  0  0  0  0  0  0  0  0  0
   13.5830  -10.0530   -3.0720 C   0  0  0  0  0  0  0  0  0  0  0  0
   18.3530  -11.4740   -0.8470 C   0  0  0  0  0  0  0  0  0  0  0  0
   18.0210  -12.8550   -1.4160 C   0  0  0  0  0  0  0  0  0  0  0  0
   18.9700  -13.9600   -0.9270 C   0  0  0  0  0  0  0  0  0  0  0  0
   19.5940  -14.7030   -2.0950 C   0  0  0  0  0  0  0  0  0  0  0  0
   18.5520  -15.6310   -2.6890 C   0  0  0  0  0  0  0  0  0  0  0  0
   20.1130  -13.7640   -3.1950 C   0  0  0  0  0  0  0  0  0  0  0  0
   20.7130  -15.5300   -1.6300 O   0  0  0  0  0  0  0  0  0  0  0  0
   20.3430  -16.2860   -1.2480 H   0  0  0  0  0  0  0  0  0  0  0  0
  1  2  1  0  0  0  0
  1 24  1  1  0  0  0
  2 19  1  6  0  0  0
  2  3  1  0  0  0  0
  3 11  1  0  0  0  0
  4  3  2  0  0  0  0
  4  5  1  0  0  0  0
  5  9  2  0  0  0  0
  6  5  1  0  0  0  0
  6  7  1  0  0  0  0
  7  8  1  0  0  0  0
  9 10  1  0  0  0  0
  9  8  1  0  0  0  0
 11 12  1  0  0  0  0
 11 10  2  0  0  0  0
 13 12  1  0  0  0  0
 14 19  1  6  0  0  0
 14 13  1  0  0  0  0
 15 14  1  0  0  0  0
 16 17  1  0  0  0  0
 16 14  1  0  0  0  0
 17 18  1  0  0  0  0
 18 19  1  0  0  0  0
 19 20  1  6  0  0  0
 20 21  1  0  0  0  0
 21 22  1  6  0  0  0
 21  1  1  0  0  0  0
 23 22  1  0  0  0  0
 25 24  1  0  0  0  0
 25 27  1  0  0  0  0
 26 25  2  0  0  0  0
 27 30  1  1  0  0  0
 27 35  1  0  0  0  0
 28 27  1  0  0  0  0
 29 28  1  0  0  0  0
 31 33  1  0  0  0  0
 31 30  1  0  0  0  0
 32 31  2  0  0  0  0
 34 33  1  0  0  0  0
 36 37  1  0  0  0  0
 36 35  1  0  0  0  0
 38 41  1  0  0  0  0
 38 37  1  0  0  0  0
 39 38  1  0  0  0  0
 40 38  1  0  0  0  0
 41 42  1  0  0  0  0
M  END
>  <minimizedAffinity>
-7.13136387

$$$$

 OpenBabel12271915463D

 42 46  0  0  1  0  0  0  0  0999 V2000
   18.8570  -10.8670   -2.7260 C   0  0  1  0  0  0  0  0  0  0  0  0
   19.4370  -12.3470   -3.0140 C   0  0  1  0  0  0  0  0  0  0  0  0
   20.8000  -12.7930   -2.4080 C   0  0  0  0  0  0  0  0  0  0  0  0
   21.5570  -11.9080   -1.6520 C   0  0  0  0  0  0  0  0  0  0  0  0
   22.7410  -12.3280   -1.1010 C   0  0  0  0  0  0  0  0  0  0  0  0
   23.5730  -11.5640   -0.3500 O   0  0  0  0  0  0  0  0  0  0  0  0
   24.4670  -12.5820    0.2160 C   0  0  0  0  0  0  0  0  0  0  0  0
   24.3800  -13.7880   -0.6380 O   0  0  0  0  0  0  0  0  0  0  0  0
   23.1910  -13.5790   -1.2630 C   0  0  0  0  0  0  0  0  0  0  0  0
   22.4900  -14.4930   -1.9920 C   0  0  0  0  0  0  0  0  0  0  0  0
   21.2280  -14.0920   -2.6030 C   0  0  0  0  0  0  0  0  0  0  0  0
   20.5640  -15.2360   -3.3080 C   0  0  0  0  0  0  0  0  0  0  0  0
   19.1380  -15.1410   -3.3350 C   0  0  0  0  0  0  0  0  0  0  0  0
   18.6400  -14.5260   -2.0140 N   0  0  2  0  0  0  0  0  0  0  0  0
   19.4340  -14.5830   -1.2780 H   0  0  0  0  0  0  0  0  0  0  0  0
   17.3820  -15.0720   -1.6270 C   0  0  0  0  0  0  0  0  0  0  0  0
   16.4350  -14.4440   -2.6380 C   0  0  0  0  0  0  0  0  0  0  0  0
   17.0450  -13.1370   -3.0710 C   0  0  0  0  0  0  0  0  0  0  0  0
   18.3670  -13.0440   -2.2560 C   0  0  2  0  0  0  0  0  0  0  0  0
   18.1470  -12.2860   -1.0330 C   0  0  0  0  0  0  0  0  0  0  0  0
   18.4840  -11.0280   -1.2570 C   0  0  2  0  0  0  0  0  0  0  0  0
   18.4850   -9.9510   -0.4380 O   0  0  0  0  0  0  0  0  0  0  0  0
   17.1480   -9.4630   -0.0030 C   0  0  0  0  0  0  0  0  0  0  0  0
   19.7730   -9.7470   -3.0970 O   0  0  0  0  0  0  0  0  0  0  0  0
   19.0490   -8.8450   -3.7920 C   0  0  0  0  0  0  0  0  0  0  0  0
   18.0240   -8.2880   -3.5290 O   0  0  0  0  0  0  0  0  0  0  0  0
   19.6680   -8.5970   -5.2260 C   0  0  2  0  0  0  0  0  0  0  0  0
   20.1860   -7.1750   -5.1820 O   0  0  0  0  0  0  0  0  0  0  0  0
   19.4200   -6.6030   -5.2070 H   0  0  0  0  0  0  0  0  0  0  0  0
   18.7140   -8.5620   -6.3580 C   0  0  0  0  0  0  0  0  0  0  0  0
   18.3710   -7.0910   -6.7640 C   0  0  0  0  0  0  0  0  0  0  0  0
   17.5460   -6.4620   -6.0420 O   0  0  0  0  0  0  0  0  0  0  0  0
   18.9870   -6.6970   -7.8500 O   0  0  0  0  0  0  0  0  0  0  0  0
   19.0820   -5.1930   -8.0720 C   0  0  0  0  0  0  0  0  0  0  0  0
   20.8210   -9.5200   -5.6080 C   0  0  0  0  0  0  0  0  0  0  0  0
   22.2180   -9.1780   -5.0870 C   0  0  0  0  0  0  0  0  0  0  0  0
   22.9000  -10.3460   -4.3590 C   0  0  0  0  0  0  0  0  0  0  0  0
   24.2610   -9.9380   -3.8230 C   0  0  0  0  0  0  0  0  0  0  0  0
   25.1340  -11.1750   -3.7320 C   0  0  0  0  0  0  0  0  0  0  0  0
   24.9640   -8.8930   -4.7040 C   0  0  0  0  0  0  0  0  0  0  0  0
   24.1290   -9.3860   -2.4710 O   0  0  0  0  0  0  0  0  0  0  0  0
   24.0350  -10.1060   -1.8990 H   0  0  0  0  0  0  0  0  0  0  0  0
  1 24  1  1  0  0  0
  1 21  1  0  0  0  0
  2  1  1  0  0  0  0
  2  3  1  0  0  0  0
  2 19  1  1  0  0  0
  3  4  1  0  0  0  0
  4  5  2  0  0  0  0
  5  6  1  0  0  0  0
  6  7  1  0  0  0  0
  8  7  1  0  0  0  0
  9  5  1  0  0  0  0
  9  8  1  0  0  0  0
 10  9  2  0  0  0  0
 11  3  2  0  0  0  0
 11 10  1  0  0  0  0
 12 11  1  0  0  0  0
 13 12  1  0  0  0  0
 13 14  1  0  0  0  0
 14 19  1  6  0  0  0
 14 16  1  0  0  0  0
 14 15  1  0  0  0  0
 17 16  1  0  0  0  0
 18 17  1  0  0  0  0
 19 18  1  6  0  0  0
 19 20  1  0  0  0  0
 21 20  1  0  0  0  0
 21 22  1  6  0  0  0
 22 23  1  0  0  0  0
 25 26  2  0  0  0  0
 25 24  1  0  0  0  0
 27 30  1  6  0  0  0
 27 28  1  0  0  0  0
 27 25  1  0  0  0  0
 29 28  1  0  0  0  0
 31 30  1  0  0  0  0
 31 32  2  0  0  0  0
 33 31  1  0  0  0  0
 34 33  1  0  0  0  0
 35 27  1  0  0  0  0
 35 36  1  0  0  0  0
 36 37  1  0  0  0  0
 37 38  1  0  0  0  0
 38 39  1  0  0  0  0
 38 41  1  0  0  0  0
 40 38  1  0  0  0  0
 41 42  1  0  0  0  0
M  END
>  <minimizedAffinity>
-7.09503984

$$$$

 OpenBabel12271915463D

 42 46  0  0  1  0  0  0  0  0999 V2000
   22.2020   -9.3920   -2.0410 C   0  0  1  0  0  0  0  0  0  0  0  0
   23.2250  -10.4290   -1.3450 C   0  0  1  0  0  0  0  0  0  0  0  0
   22.9530  -11.9610   -1.3930 C   0  0  0  0  0  0  0  0  0  0  0  0
   21.8020  -12.4520   -1.9950 C   0  0  0  0  0  0  0  0  0  0  0  0
   21.5940  -13.8070   -2.0560 C   0  0  0  0  0  0  0  0  0  0  0  0
   20.5130  -14.4120   -2.6090 O   0  0  0  0  0  0  0  0  0  0  0  0
   20.9690  -15.8060   -2.6800 C   0  0  0  0  0  0  0  0  0  0  0  0
   22.0820  -15.9700   -1.7180 O   0  0  0  0  0  0  0  0  0  0  0  0
   22.4780  -14.6800   -1.5560 C   0  0  0  0  0  0  0  0  0  0  0  0
   23.6260  -14.2580   -0.9560 C   0  0  0  0  0  0  0  0  0  0  0  0
   23.8900  -12.8270   -0.8620 C   0  0  0  0  0  0  0  0  0  0  0  0
   25.2220  -12.5470   -0.2350 C   0  0  0  0  0  0  0  0  0  0  0  0
   25.8240  -11.3320   -0.6890 C   0  0  0  0  0  0  0  0  0  0  0  0
   25.5040  -11.1270   -2.1810 N   0  0  2  0  0  0  0  0  0  0  0  0
   25.1630  -12.0670   -2.6000 H   0  0  0  0  0  0  0  0  0  0  0  0
   26.5820  -10.4900   -2.8630 C   0  0  0  0  0  0  0  0  0  0  0  0
   26.5000   -9.0670   -2.3300 C   0  0  0  0  0  0  0  0  0  0  0  0
   25.0670   -8.8160   -1.9410 C   0  0  0  0  0  0  0  0  0  0  0  0
   24.3390  -10.1470   -2.2850 C   0  0  2  0  0  0  0  0  0  0  0  0
   23.7610  -10.0700   -3.6190 C   0  0  0  0  0  0  0  0  0  0  0  0
   22.5000   -9.6940   -3.5050 C   0  0  2  0  0  0  0  0  0  0  0  0
   21.5430   -9.5050   -4.4430 O   0  0  0  0  0  0  0  0  0  0  0  0
   20.9260  -10.7380   -5.0010 C   0  0  0  0  0  0  0  0  0  0  0  0
   20.7850   -9.4970   -1.5800 O   0  0  0  0  0  0  0  0  0  0  0  0
   20.1830   -8.3190   -1.8450 C   0  0  0  0  0  0  0  0  0  0  0  0
   20.5920   -7.1960   -1.7890 O   0  0  0  0  0  0  0  0  0  0  0  0
   18.6540   -8.5220   -2.1940 C   0  0  2  0  0  0  0  0  0  0  0  0
   17.9370   -8.4110   -0.8660 O   0  0  0  0  0  0  0  0  0  0  0  0
   18.1270   -9.2140   -0.3830 H   0  0  0  0  0  0  0  0  0  0  0  0
   18.2600   -9.8700   -2.6660 C   0  0  0  0  0  0  0  0  0  0  0  0
   17.0800  -10.4440   -1.8160 C   0  0  0  0  0  0  0  0  0  0  0  0
   15.9050  -10.2380   -2.2310 O   0  0  0  0  0  0  0  0  0  0  0  0
   17.4770  -11.0660   -0.7330 O   0  0  0  0  0  0  0  0  0  0  0  0
   18.3060  -12.3260   -0.9380 C   0  0  0  0  0  0  0  0  0  0  0  0
   18.0620   -7.4940   -3.1520 C   0  0  0  0  0  0  0  0  0  0  0  0
   17.5420   -7.9860   -4.5040 C   0  0  0  0  0  0  0  0  0  0  0  0
   18.6150   -7.9980   -5.6020 C   0  0  0  0  0  0  0  0  0  0  0  0
   17.9850   -7.9900   -6.9840 C   0  0  0  0  0  0  0  0  0  0  0  0
   16.4780   -8.0450   -6.8280 C   0  0  0  0  0  0  0  0  0  0  0  0
   18.3580   -6.7460   -7.8070 C   0  0  0  0  0  0  0  0  0  0  0  0
   18.3980   -9.1790   -7.7370 O   0  0  0  0  0  0  0  0  0  0  0  0
   17.8860   -9.8820   -7.4230 H   0  0  0  0  0  0  0  0  0  0  0  0
  1 24  1  6  0  0  0
  1  2  1  0  0  0  0
  2 19  1  6  0  0  0
  3  2  1  0  0  0  0
  3 11  2  0  0  0  0
  4  3  1  0  0  0  0
  5  4  2  0  0  0  0
  5  9  1  0  0  0  0
  6  5  1  0  0  0  0
  7  6  1  0  0  0  0
  7  8  1  0  0  0  0
  8  9  1  0  0  0  0
  9 10  2  0  0  0  0
 10 11  1  0  0  0  0
 11 12  1  0  0  0  0
 13 12  1  0  0  0  0
 14 19  1  6  0  0  0
 14 13  1  0  0  0  0
 15 14  1  0  0  0  0
 16 17  1  0  0  0  0
 16 14  1  0  0  0  0
 17 18  1  0  0  0  0
 19 20  1  6  0  0  0
 19 18  1  0  0  0  0
 20 21  1  0  0  0  0
 21 22  1  6  0  0  0
 21  1  1  0  0  0  0
 23 22  1  0  0  0  0
 25 26  2  0  0  0  0
 25 24  1  0  0  0  0
 27 35  1  6  0  0  0
 27 25  1  0  0  0  0
 27 28  1  0  0  0  0
 28 29  1  0  0  0  0
 30 27  1  0  0  0  0
 30 31  1  0  0  0  0
 31 33  1  0  0  0  0
 32 31  2  0  0  0  0
 34 33  1  0  0  0  0
 36 35  1  0  0  0  0
 37 36  1  0  0  0  0
 38 39  1  0  0  0  0
 38 37  1  0  0  0  0
 40 38  1  0  0  0  0
 41 42  1  0  0  0  0
 41 38  1  0  0  0  0
M  END
>  <minimizedAffinity>
-6.9551816

$$$$

 OpenBabel12271915463D

 42 46  0  0  1  0  0  0  0  0999 V2000
   21.9330  -10.4560   -2.9670 C   0  0  1  0  0  0  0  0  0  0  0  0
   22.8170   -9.3140   -3.6910 C   0  0  1  0  0  0  0  0  0  0  0  0
   22.7810   -7.8440   -3.1790 C   0  0  0  0  0  0  0  0  0  0  0  0
   21.9520   -7.4860   -2.1240 C   0  0  0  0  0  0  0  0  0  0  0  0
   21.9560   -6.1930   -1.6660 C   0  0  0  0  0  0  0  0  0  0  0  0
   21.1930   -5.7160   -0.6520 O   0  0  0  0  0  0  0  0  0  0  0  0
   21.8300   -4.4170   -0.3980 C   0  0  0  0  0  0  0  0  0  0  0  0
   22.5990   -4.0440   -1.6070 O   0  0  0  0  0  0  0  0  0  0  0  0
   22.7480   -5.2560   -2.2040 C   0  0  0  0  0  0  0  0  0  0  0  0
   23.5850   -5.5480   -3.2400 C   0  0  0  0  0  0  0  0  0  0  0  0
   23.6120   -6.9080   -3.7650 C   0  0  0  0  0  0  0  0  0  0  0  0
   24.6320   -7.0640   -4.8520 C   0  0  0  0  0  0  0  0  0  0  0  0
   25.1770   -8.3830   -4.9400 C   0  0  0  0  0  0  0  0  0  0  0  0
   25.3150   -8.9770   -3.5250 N   0  0  2  0  0  0  0  0  0  0  0  0
   25.2500   -8.1740   -2.7990 H   0  0  0  0  0  0  0  0  0  0  0  0
   26.4560   -9.8250   -3.4250 C   0  0  0  0  0  0  0  0  0  0  0  0
   26.0230  -11.0400   -4.2310 C   0  0  0  0  0  0  0  0  0  0  0  0
   24.5200  -11.1100   -4.1640 C   0  0  0  0  0  0  0  0  0  0  0  0
   24.1210   -9.8940   -3.2800 C   0  0  2  0  0  0  0  0  0  0  0  0
   23.9830  -10.3100   -1.8910 C   0  0  0  0  0  0  0  0  0  0  0  0
   22.7110  -10.5820   -1.6630 C   0  0  2  0  0  0  0  0  0  0  0  0
   22.0770  -10.9790   -0.5340 O   0  0  0  0  0  0  0  0  0  0  0  0
   22.1140  -12.4390   -0.2460 C   0  0  0  0  0  0  0  0  0  0  0  0
   20.4700  -10.1630   -2.8840 O   0  0  0  0  0  0  0  0  0  0  0  0
   19.8190  -11.3450   -2.8950 C   0  0  0  0  0  0  0  0  0  0  0  0
   19.9700  -12.3200   -3.5710 O   0  0  0  0  0  0  0  0  0  0  0  0
   18.6050  -11.3390   -1.8810 C   0  0  2  0  0  0  0  0  0  0  0  0
   17.3740  -11.4710   -2.7520 O   0  0  0  0  0  0  0  0  0  0  0  0
   17.2570  -10.6300   -3.1910 H   0  0  0  0  0  0  0  0  0  0  0  0
   18.3580  -10.0710   -1.1570 C   0  0  0  0  0  0  0  0  0  0  0  0
   17.1490   -9.2940   -1.7750 C   0  0  0  0  0  0  0  0  0  0  0  0
   15.9860   -9.6640   -1.4470 O   0  0  0  0  0  0  0  0  0  0  0  0
   17.5120   -8.3420   -2.5980 O   0  0  0  0  0  0  0  0  0  0  0  0
   17.0890   -8.5010   -4.0520 C   0  0  0  0  0  0  0  0  0  0  0  0
   18.6010  -12.4740   -0.8620 C   0  0  0  0  0  0  0  0  0  0  0  0
   18.7840  -13.9030   -1.3770 C   0  0  0  0  0  0  0  0  0  0  0  0
   17.4730  -14.5600   -1.8320 C   0  0  0  0  0  0  0  0  0  0  0  0
   17.6140  -15.1630   -3.2190 C   0  0  0  0  0  0  0  0  0  0  0  0
   18.8940  -15.9750   -3.2640 C   0  0  0  0  0  0  0  0  0  0  0  0
   16.4330  -16.0680   -3.6030 C   0  0  0  0  0  0  0  0  0  0  0  0
   17.7260  -14.1010   -4.2240 O   0  0  0  0  0  0  0  0  0  0  0  0
   18.5960  -13.7910   -4.1870 H   0  0  0  0  0  0  0  0  0  0  0  0
  1 24  1  1  0  0  0
  1 21  1  0  0  0  0
  2 19  1  1  0  0  0
  2  3  1  0  0  0  0
  2  1  1  0  0  0  0
  3  4  2  0  0  0  0
  4  5  1  0  0  0  0
  5  6  1  0  0  0  0
  6  7  1  0  0  0  0
  8  7  1  0  0  0  0
  9  5  2  0  0  0  0
  9  8  1  0  0  0  0
 10  9  1  0  0  0  0
 11 10  2  0  0  0  0
 11  3  1  0  0  0  0
 12 11  1  0  0  0  0
 13 12  1  0  0  0  0
 13 14  1  0  0  0  0
 14 16  1  0  0  0  0
 14 19  1  1  0  0  0
 14 15  1  0  0  0  0
 17 18  1  0  0  0  0
 17 16  1  0  0  0  0
 19 18  1  6  0  0  0
 19 20  1  0  0  0  0
 20 21  1  0  0  0  0
 21 22  1  6  0  0  0
 22 23  1  0  0  0  0
 25 24  1  0  0  0  0
 25 27  1  0  0  0  0
 26 25  2  0  0  0  0
 27 30  1  1  0  0  0
 27 35  1  0  0  0  0
 28 27  1  0  0  0  0
 29 28  1  0  0  0  0
 31 32  2  0  0  0  0
 31 30  1  0  0  0  0
 33 31  1  0  0  0  0
 34 33  1  0  0  0  0
 36 35  1  0  0  0  0
 37 36  1  0  0  0  0
 38 37  1  0  0  0  0
 39 38  1  0  0  0  0
 40 38  1  0  0  0  0
 41 42  1  0  0  0  0
 41 38  1  0  0  0  0
M  END
>  <minimizedAffinity>
-6.79409122

$$$$

 OpenBabel12271915463D

 42 46  0  0  1  0  0  0  0  0999 V2000
   21.5090  -10.3990   -1.7400 C   0  0  1  0  0  0  0  0  0  0  0  0
   21.1710  -11.7090   -0.8580 C   0  0  1  0  0  0  0  0  0  0  0  0
   19.8590  -12.5100   -1.1030 C   0  0  0  0  0  0  0  0  0  0  0  0
   18.9400  -12.0810   -2.0510 C   0  0  0  0  0  0  0  0  0  0  0  0
   17.8030  -12.8160   -2.2760 C   0  0  0  0  0  0  0  0  0  0  0  0
   16.8280  -12.5040   -3.1650 O   0  0  0  0  0  0  0  0  0  0  0  0
   16.0660  -13.7580   -3.2090 C   0  0  0  0  0  0  0  0  0  0  0  0
   16.3770  -14.5220   -1.9800 O   0  0  0  0  0  0  0  0  0  0  0  0
   17.5530  -13.9500   -1.6090 C   0  0  0  0  0  0  0  0  0  0  0  0
   18.4200  -14.4230   -0.6690 C   0  0  0  0  0  0  0  0  0  0  0  0
   19.6390  -13.6740   -0.3910 C   0  0  0  0  0  0  0  0  0  0  0  0
   20.5020  -14.3710    0.6170 C   0  0  0  0  0  0  0  0  0  0  0  0
   21.8980  -14.1070    0.4540 C   0  0  0  0  0  0  0  0  0  0  0  0
   22.2280  -13.9960   -1.0460 N   0  0  2  0  0  0  0  0  0  0  0  0
   21.4130  -14.4260   -1.6180 H   0  0  0  0  0  0  0  0  0  0  0  0
   23.5310  -14.5000   -1.3310 C   0  0  0  0  0  0  0  0  0  0  0  0
   24.4270  -13.4240   -0.7360 C   0  0  0  0  0  0  0  0  0  0  0  0
   23.6540  -12.1310   -0.7640 C   0  0  0  0  0  0  0  0  0  0  0  0
   22.2910  -12.5150   -1.4080 C   0  0  2  0  0  0  0  0  0  0  0  0
   22.3290  -12.2680   -2.8420 C   0  0  0  0  0  0  0  0  0  0  0  0
   21.8220  -11.0700   -3.0710 C   0  0  2  0  0  0  0  0  0  0  0  0
   21.6180  -10.4010   -4.2300 O   0  0  0  0  0  0  0  0  0  0  0  0
   20.3730  -10.7440   -4.9690 C   0  0  0  0  0  0  0  0  0  0  0  0
   20.4580   -9.3370   -1.7210 O   0  0  0  0  0  0  0  0  0  0  0  0
   20.8110   -8.4350   -0.7830 C   0  0  0  0  0  0  0  0  0  0  0  0
   20.6070   -8.4030    0.3960 O   0  0  0  0  0  0  0  0  0  0  0  0
   21.5350   -7.1870   -1.4320 C   0  0  2  0  0  0  0  0  0  0  0  0
   21.0320   -5.9960   -0.6450 O   0  0  0  0  0  0  0  0  0  0  0  0
   20.1260   -5.8500   -0.9170 H   0  0  0  0  0  0  0  0  0  0  0  0
   21.1450   -6.8490   -2.8200 C   0  0  0  0  0  0  0  0  0  0  0  0
   20.1520   -5.6410   -2.8510 C   0  0  0  0  0  0  0  0  0  0  0  0
   20.6410   -4.4840   -2.9880 O   0  0  0  0  0  0  0  0  0  0  0  0
   18.9000   -5.9970   -2.7010 O   0  0  0  0  0  0  0  0  0  0  0  0
   17.9590   -5.6780   -3.8550 C   0  0  0  0  0  0  0  0  0  0  0  0
   23.0580   -7.2070   -1.3600 C   0  0  0  0  0  0  0  0  0  0  0  0
   23.8320   -7.6050   -2.6180 C   0  0  0  0  0  0  0  0  0  0  0  0
   24.7540   -8.8150   -2.4090 C   0  0  0  0  0  0  0  0  0  0  0  0
   25.5720   -9.1040   -3.6560 C   0  0  0  0  0  0  0  0  0  0  0  0
   25.4150  -10.5710   -4.0070 C   0  0  0  0  0  0  0  0  0  0  0  0
   25.1470   -8.2510   -4.8620 C   0  0  0  0  0  0  0  0  0  0  0  0
   26.9940   -8.8580   -3.3980 O   0  0  0  0  0  0  0  0  0  0  0  0
   27.3090   -9.5900   -2.9300 H   0  0  0  0  0  0  0  0  0  0  0  0
  1 24  1  6  0  0  0
  1  2  1  0  0  0  0
  2 19  1  6  0  0  0
  3  2  1  0  0  0  0
  3 11  2  0  0  0  0
  4  3  1  0  0  0  0
  5  4  2  0  0  0  0
  5  9  1  0  0  0  0
  6  5  1  0  0  0  0
  7  6  1  0  0  0  0
  7  8  1  0  0  0  0
  8  9  1  0  0  0  0
  9 10  2  0  0  0  0
 10 11  1  0  0  0  0
 11 12  1  0  0  0  0
 13 12  1  0  0  0  0
 14 19  1  6  0  0  0
 14 13  1  0  0  0  0
 15 14  1  0  0  0  0
 16 14  1  0  0  0  0
 16 17  1  0  0  0  0
 18 17  1  0  0  0  0
 19 20  1  6  0  0  0
 19 18  1  0  0  0  0
 21 22  1  1  0  0  0
 21 20  1  0  0  0  0
 21  1  1  0  0  0  0
 23 22  1  0  0  0  0
 24 25  1  0  0  0  0
 25 26  2  0  0  0  0
 27 30  1  6  0  0  0
 27 35  1  0  0  0  0
 27 25  1  0  0  0  0
 27 28  1  0  0  0  0
 29 28  1  0  0  0  0
 31 30  1  0  0  0  0
 31 33  1  0  0  0  0
 32 31  2  0  0  0  0
 34 33  1  0  0  0  0
 36 37  1  0  0  0  0
 36 35  1  0  0  0  0
 38 41  1  0  0  0  0
 38 37  1  0  0  0  0
 39 38  1  0  0  0  0
 40 38  1  0  0  0  0
 41 42  1  0  0  0  0
M  END
>  <minimizedAffinity>
-6.79210663

$$$$

 OpenBabel12271915463D

 42 46  0  0  1  0  0  0  0  0999 V2000
   24.1380  -10.8900   -2.3950 C   0  0  1  0  0  0  0  0  0  0  0  0
   24.6120   -9.7090   -3.3900 C   0  0  1  0  0  0  0  0  0  0  0  0
   23.8090   -8.3780   -3.4760 C   0  0  0  0  0  0  0  0  0  0  0  0
   22.6470   -8.2080   -2.7350 C   0  0  0  0  0  0  0  0  0  0  0  0
   21.9680   -7.0180   -2.8000 C   0  0  0  0  0  0  0  0  0  0  0  0
   20.8240   -6.7280   -2.1330 O   0  0  0  0  0  0  0  0  0  0  0  0
   20.7440   -5.2730   -2.3160 C   0  0  0  0  0  0  0  0  0  0  0  0
   21.5840   -4.9150   -3.4810 O   0  0  0  0  0  0  0  0  0  0  0  0
   22.3990   -6.0000   -3.5570 C   0  0  0  0  0  0  0  0  0  0  0  0
   23.5340   -6.1070   -4.3040 C   0  0  0  0  0  0  0  0  0  0  0  0
   24.2860   -7.3550   -4.2720 C   0  0  0  0  0  0  0  0  0  0  0  0
   25.5350   -7.2720   -5.0980 C   0  0  0  0  0  0  0  0  0  0  0  0
   26.5920   -8.1080   -4.6210 C   0  0  0  0  0  0  0  0  0  0  0  0
   26.5670   -8.1390   -3.0810 N   0  0  2  0  0  0  0  0  0  0  0  0
   25.9640   -7.3120   -2.7230 H   0  0  0  0  0  0  0  0  0  0  0  0
   27.8820   -8.2390   -2.5400 C   0  0  0  0  0  0  0  0  0  0  0  0
   28.2570   -9.6750   -2.8730 C   0  0  0  0  0  0  0  0  0  0  0  0
   26.9770  -10.4640   -2.9560 C   0  0  0  0  0  0  0  0  0  0  0  0
   25.8650   -9.4210   -2.6460 C   0  0  2  0  0  0  0  0  0  0  0  0
   25.5350   -9.4510   -1.2280 C   0  0  0  0  0  0  0  0  0  0  0  0
   24.4940  -10.2470   -1.0600 C   0  0  2  0  0  0  0  0  0  0  0  0
   23.8030  -10.5800    0.0550 O   0  0  0  0  0  0  0  0  0  0  0  0
   22.7470   -9.6200    0.4780 C   0  0  0  0  0  0  0  0  0  0  0  0
   22.7330  -11.3570   -2.5950 O   0  0  0  0  0  0  0  0  0  0  0  0
   22.6880  -12.6620   -2.2550 C   0  0  0  0  0  0  0  0  0  0  0  0
   23.5590  -13.4710   -2.1210 O   0  0  0  0  0  0  0  0  0  0  0  0
   21.1950  -13.1660   -2.1140 C   0  0  2  0  0  0  0  0  0  0  0  0
   20.4910  -12.6330   -3.3430 O   0  0  0  0  0  0  0  0  0  0  0  0
   20.3840  -11.6920   -3.2130 H   0  0  0  0  0  0  0  0  0  0  0  0
   20.4050  -12.5810   -1.0060 C   0  0  0  0  0  0  0  0  0  0  0  0
   19.3830  -11.5230   -1.5370 C   0  0  0  0  0  0  0  0  0  0  0  0
   18.2760  -11.9470   -1.9760 O   0  0  0  0  0  0  0  0  0  0  0  0
   19.8330  -10.2940   -1.4780 O   0  0  0  0  0  0  0  0  0  0  0  0
   18.8580   -9.2360   -0.9790 C   0  0  0  0  0  0  0  0  0  0  0  0
   21.0200  -14.6800   -2.0730 C   0  0  0  0  0  0  0  0  0  0  0  0
   19.6220  -15.2340   -1.7920 C   0  0  0  0  0  0  0  0  0  0  0  0
   18.9750  -15.9050   -3.0130 C   0  0  0  0  0  0  0  0  0  0  0  0
   17.6210  -15.2890   -3.3230 C   0  0  0  0  0  0  0  0  0  0  0  0
   16.7830  -16.3130   -4.0640 C   0  0  0  0  0  0  0  0  0  0  0  0
   16.8640  -14.8380   -2.0640 C   0  0  0  0  0  0  0  0  0  0  0  0
   17.7830  -14.1260   -4.2030 O   0  0  0  0  0  0  0  0  0  0  0  0
   17.9140  -14.4560   -5.0560 H   0  0  0  0  0  0  0  0  0  0  0  0
  1 24  1  1  0  0  0
  1 21  1  0  0  0  0
  2 19  1  1  0  0  0
  2  1  1  0  0  0  0
  3  2  1  0  0  0  0
  3  4  2  0  0  0  0
  5  4  1  0  0  0  0
  5  6  1  0  0  0  0
  7  6  1  0  0  0  0
  8  7  1  0  0  0  0
  9  8  1  0  0  0  0
  9  5  2  0  0  0  0
 10 11  2  0  0  0  0
 10  9  1  0  0  0  0
 11  3  1  0  0  0  0
 12 13  1  0  0  0  0
 12 11  1  0  0  0  0
 13 14  1  0  0  0  0
 14 15  1  0  0  0  0
 14 19  1  1  0  0  0
 14 16  1  0  0  0  0
 17 16  1  0  0  0  0
 18 17  1  0  0  0  0
 19 18  1  6  0  0  0
 19 20  1  0  0  0  0
 20 21  1  0  0  0  0
 21 22  1  1  0  0  0
 22 23  1  0  0  0  0
 24 25  1  0  0  0  0
 25 26  2  0  0  0  0
 25 27  1  0  0  0  0
 27 35  1  1  0  0  0
 27 30  1  0  0  0  0
 28 29  1  0  0  0  0
 28 27  1  0  0  0  0
 31 33  1  0  0  0  0
 31 30  1  0  0  0  0
 32 31  2  0  0  0  0
 33 34  1  0  0  0  0
 35 36  1  0  0  0  0
 37 36  1  0  0  0  0
 38 37  1  0  0  0  0
 38 40  1  0  0  0  0
 39 38  1  0  0  0  0
 41 38  1  0  0  0  0
 42 41  1  0  0  0  0
M  END
>  <minimizedAffinity>
-6.77170801

$$$$
