
 OpenBabel12271915433D

 42 46  0  0  1  0  0  0  0  0999 V2000
   18.6810  -10.4770   -1.9300 C   0  0  1  0  0  0  0  0  0  0  0  0
   19.6590   -9.4260   -2.4340 C   0  0  1  0  0  0  0  0  0  0  0  0
   21.0760   -9.8130   -2.3920 C   0  0  0  0  0  0  0  0  0  0  0  0
   21.5220  -10.1260   -1.1080 C   0  0  0  0  0  0  0  0  0  0  0  0
   22.8530  -10.5100   -0.8960 C   0  0  0  0  0  0  0  0  0  0  0  0
   23.4950  -10.8600    0.2740 O   0  0  0  0  0  0  0  0  0  0  0  0
   24.8940  -11.0060   -0.0240 C   0  0  0  0  0  0  0  0  0  0  0  0
   24.9740  -10.9860   -1.4570 O   0  0  0  0  0  0  0  0  0  0  0  0
   23.7210  -10.5880   -1.9020 C   0  0  0  0  0  0  0  0  0  0  0  0
   23.3020  -10.2830   -3.1890 C   0  0  0  0  0  0  0  0  0  0  0  0
   21.9740   -9.8890   -3.4250 C   0  0  0  0  0  0  0  0  0  0  0  0
   21.7380   -9.6260   -4.8600 C   0  0  0  0  0  0  0  0  0  0  0  0
   20.5090  -10.3660   -5.2610 C   0  0  0  0  0  0  0  0  0  0  0  0
   19.2440   -9.7310   -4.9300 N   0  0  2  0  0  0  0  0  0  0  0  0
   18.5210  -10.4450   -4.9720 H   0  0  0  0  0  0  0  0  0  0  0  0
   18.9450   -8.7470   -5.9890 C   0  0  0  0  0  0  0  0  0  0  0  0
   19.1960   -7.3720   -5.4180 C   0  0  0  0  0  0  0  0  0  0  0  0
   19.4510   -7.5370   -3.9470 C   0  0  0  0  0  0  0  0  0  0  0  0
   19.0840   -8.9660   -3.7080 C   0  0  2  0  0  0  0  0  0  0  0  0
   17.6320   -8.9970   -3.3940 C   0  0  0  0  0  0  0  0  0  0  0  0
   17.3940   -9.8380   -2.3890 C   0  0  2  0  0  0  0  0  0  0  0  0
   16.1880  -10.0930   -1.8180 O   0  0  0  0  0  0  0  0  0  0  0  0
   15.0030   -9.5490   -2.4420 C   0  0  0  0  0  0  0  0  0  0  0  0
   18.8190  -11.7200   -2.6570 O   0  0  0  0  0  0  0  0  0  0  0  0
   18.1900  -12.8200   -2.1330 C   0  0  0  0  0  0  0  0  0  0  0  0
   17.7260  -12.8640   -1.0470 O   0  0  0  0  0  0  0  0  0  0  0  0
   18.0820  -14.0760   -3.0020 C   0  0  2  0  0  0  0  0  0  0  0  0
   18.7200  -13.8100   -4.2240 O   0  0  0  0  0  0  0  0  0  0  0  0
   18.8200  -12.8510   -4.3710 H   0  0  0  0  0  0  0  0  0  0  0  0
   16.6460  -14.5070   -3.1610 C   0  0  0  0  0  0  0  0  0  0  0  0
   16.4400  -15.9230   -3.6770 C   0  0  0  0  0  0  0  0  0  0  0  0
   15.5760  -16.5830   -3.1910 O   0  0  0  0  0  0  0  0  0  0  0  0
   17.2420  -16.4020   -4.6800 O   0  0  0  0  0  0  0  0  0  0  0  0
   17.4700  -17.8440   -4.6700 C   0  0  0  0  0  0  0  0  0  0  0  0
   18.8640  -15.1560   -2.2720 C   0  0  0  0  0  0  0  0  0  0  0  0
   20.2430  -15.4590   -2.7990 C   0  0  0  0  0  0  0  0  0  0  0  0
   21.3280  -15.5760   -1.7430 C   0  0  0  0  0  0  0  0  0  0  0  0
   21.8540  -14.1880   -1.4380 C   0  0  0  0  0  0  0  0  0  0  0  0
   21.3030  -13.6360   -0.1390 C   0  0  0  0  0  0  0  0  0  0  0  0
   23.3600  -14.1970   -1.3570 C   0  0  0  0  0  0  0  0  0  0  0  0
   21.4890  -13.3360   -2.5050 O   0  0  0  0  0  0  0  0  0  0  0  0
   22.1200  -13.5100   -3.2160 H   0  0  0  0  0  0  0  0  0  0  0  0
  1 24  1  6  0  0  0
  2 19  1  6  0  0  0
  2  3  1  0  0  0  0
  2  1  1  0  0  0  0
  3  4  1  0  0  0  0
  4  5  1  0  0  0  0
  5  6  1  0  0  0  0
  7  6  1  0  0  0  0
  8  7  1  0  0  0  0
  9  8  1  0  0  0  0
  9  5  2  0  0  0  0
 10  9  1  0  0  0  0
 11 10  1  0  0  0  0
 11  3  2  0  0  0  0
 12 11  1  0  0  0  0
 13 14  1  0  0  0  0
 13 12  1  0  0  0  0
 14 19  1  1  0  0  0
 15 14  1  0  0  0  0
 16 17  1  0  0  0  0
 16 14  1  0  0  0  0
 17 18  1  0  0  0  0
 19 18  1  6  0  0  0
 19 20  1  0  0  0  0
 20 21  1  0  0  0  0
 21  1  1  0  0  0  0
 21 22  1  1  0  0  0
 23 22  1  0  0  0  0
 24 25  1  0  0  0  0
 25 26  2  0  0  0  0
 27 30  1  6  0  0  0
 27 35  1  0  0  0  0
 27 25  1  0  0  0  0
 28 27  1  0  0  0  0
 29 28  1  0  0  0  0
 31 32  2  0  0  0  0
 31 30  1  0  0  0  0
 33 34  1  0  0  0  0
 33 31  1  0  0  0  0
 36 35  1  0  0  0  0
 36 37  1  0  0  0  0
 37 38  1  0  0  0  0
 38 40  1  0  0  0  0
 38 39  1  0  0  0  0
 41 38  1  0  0  0  0
 42 41  1  0  0  0  0
M  END
>  <minimizedAffinity>
-7.88347387

$$$$

 OpenBabel12271915433D

 42 46  0  0  1  0  0  0  0  0999 V2000
   21.8160   -8.7370   -1.4570 C   0  0  1  0  0  0  0  0  0  0  0  0
   23.1100   -9.4710   -1.1380 C   0  0  1  0  0  0  0  0  0  0  0  0
   23.0600  -10.9310   -1.2870 C   0  0  0  0  0  0  0  0  0  0  0  0
   22.1000  -11.5340   -0.4730 C   0  0  0  0  0  0  0  0  0  0  0  0
   21.9280  -12.9240   -0.4940 C   0  0  0  0  0  0  0  0  0  0  0  0
   21.0500  -13.7160    0.2180 O   0  0  0  0  0  0  0  0  0  0  0  0
   21.3910  -15.0880   -0.0420 C   0  0  0  0  0  0  0  0  0  0  0  0
   22.3220  -15.0400   -1.1330 O   0  0  0  0  0  0  0  0  0  0  0  0
   22.6650  -13.7040   -1.2810 C   0  0  0  0  0  0  0  0  0  0  0  0
   23.6260  -13.1290   -2.1010 C   0  0  0  0  0  0  0  0  0  0  0  0
   23.8210  -11.7370   -2.0940 C   0  0  0  0  0  0  0  0  0  0  0  0
   24.8770  -11.3370   -3.0470 C   0  0  0  0  0  0  0  0  0  0  0  0
   24.3390  -10.2250   -3.8800 C   0  0  0  0  0  0  0  0  0  0  0  0
   24.3710   -8.9020   -3.2780 N   0  0  2  0  0  0  0  0  0  0  0  0
   23.7230   -8.3130   -3.7950 H   0  0  0  0  0  0  0  0  0  0  0  0
   25.7230   -8.3470   -3.4870 C   0  0  0  0  0  0  0  0  0  0  0  0
   26.4490   -8.4030   -2.1640 C   0  0  0  0  0  0  0  0  0  0  0  0
   25.4480   -8.8090   -1.1200 C   0  0  0  0  0  0  0  0  0  0  0  0
   24.1490   -8.7180   -1.8560 C   0  0  2  0  0  0  0  0  0  0  0  0
   23.6550   -7.3250   -1.6980 C   0  0  0  0  0  0  0  0  0  0  0  0
   22.3440   -7.3240   -1.4640 C   0  0  2  0  0  0  0  0  0  0  0  0
   21.5650   -6.2350   -1.2380 O   0  0  0  0  0  0  0  0  0  0  0  0
   21.6540   -5.1230   -2.1580 C   0  0  0  0  0  0  0  0  0  0  0  0
   21.3620   -9.0260   -2.7990 O   0  0  0  0  0  0  0  0  0  0  0  0
   20.0080   -8.9870   -3.0200 C   0  0  0  0  0  0  0  0  0  0  0  0
   19.3790   -7.9900   -3.1030 O   0  0  0  0  0  0  0  0  0  0  0  0
   19.2590  -10.3130   -3.1650 C   0  0  2  0  0  0  0  0  0  0  0  0
   18.2930  -10.1540   -4.1720 O   0  0  0  0  0  0  0  0  0  0  0  0
   18.1090   -9.2120   -4.3410 H   0  0  0  0  0  0  0  0  0  0  0  0
   18.6770  -10.7580   -1.8460 C   0  0  0  0  0  0  0  0  0  0  0  0
   17.1580  -10.7280   -1.7570 C   0  0  0  0  0  0  0  0  0  0  0  0
   16.5420  -11.5780   -2.3180 O   0  0  0  0  0  0  0  0  0  0  0  0
   16.5420   -9.7370   -1.0400 O   0  0  0  0  0  0  0  0  0  0  0  0
   15.4460   -9.0530   -1.7210 C   0  0  0  0  0  0  0  0  0  0  0  0
   20.2910  -11.3240   -3.6370 C   0  0  0  0  0  0  0  0  0  0  0  0
   19.7550  -12.5990   -4.2380 C   0  0  0  0  0  0  0  0  0  0  0  0
   19.9660  -13.8480   -3.4010 C   0  0  0  0  0  0  0  0  0  0  0  0
   18.6270  -14.5300   -3.2090 C   0  0  0  0  0  0  0  0  0  0  0  0
   18.6700  -15.9980   -3.5810 C   0  0  0  0  0  0  0  0  0  0  0  0
   18.1690  -14.4100   -1.7770 C   0  0  0  0  0  0  0  0  0  0  0  0
   17.6760  -13.8670   -4.0170 O   0  0  0  0  0  0  0  0  0  0  0  0
   17.4300  -13.0640   -3.5400 H   0  0  0  0  0  0  0  0  0  0  0  0
  1 24  1  6  0  0  0
  1  2  1  0  0  0  0
  2 19  1  6  0  0  0
  3  2  1  0  0  0  0
  3  4  1  0  0  0  0
  5  4  1  0  0  0  0
  5  6  1  0  0  0  0
  7  6  1  0  0  0  0
  8  7  1  0  0  0  0
  9  8  1  0  0  0  0
  9  5  2  0  0  0  0
 10 11  1  0  0  0  0
 10  9  1  0  0  0  0
 11  3  2  0  0  0  0
 12 11  1  0  0  0  0
 13 14  1  0  0  0  0
 13 12  1  0  0  0  0
 14 19  1  1  0  0  0
 15 14  1  0  0  0  0
 16 14  1  0  0  0  0
 16 17  1  0  0  0  0
 17 18  1  0  0  0  0
 19 20  1  1  0  0  0
 19 18  1  0  0  0  0
 20 21  1  0  0  0  0
 21  1  1  0  0  0  0
 21 22  1  1  0  0  0
 23 22  1  0  0  0  0
 25 24  1  0  0  0  0
 26 25  2  0  0  0  0
 27 35  1  6  0  0  0
 27 25  1  0  0  0  0
 27 30  1  0  0  0  0
 28 27  1  0  0  0  0
 29 28  1  0  0  0  0
 30 31  1  0  0  0  0
 31 33  1  0  0  0  0
 32 31  2  0  0  0  0
 34 33  1  0  0  0  0
 36 35  1  0  0  0  0
 36 37  1  0  0  0  0
 37 38  1  0  0  0  0
 38 40  1  0  0  0  0
 39 38  1  0  0  0  0
 41 42  1  0  0  0  0
 41 38  1  0  0  0  0
M  END
>  <minimizedAffinity>
-7.64175224

$$$$

 OpenBabel12271915433D

 42 46  0  0  1  0  0  0  0  0999 V2000
   19.5740  -10.4630   -1.2620 C   0  0  1  0  0  0  0  0  0  0  0  0
   20.4150   -9.4650   -2.0440 C   0  0  1  0  0  0  0  0  0  0  0  0
   21.8300   -9.8240   -2.2080 C   0  0  0  0  0  0  0  0  0  0  0  0
   22.5010   -9.9800   -0.9950 C   0  0  0  0  0  0  0  0  0  0  0  0
   23.8610  -10.3190   -0.9780 C   0  0  0  0  0  0  0  0  0  0  0  0
   24.7070  -10.5220    0.0940 O   0  0  0  0  0  0  0  0  0  0  0  0
   26.0380  -10.6830   -0.4260 C   0  0  0  0  0  0  0  0  0  0  0  0
   25.8690  -10.8270   -1.8440 O   0  0  0  0  0  0  0  0  0  0  0  0
   24.5450  -10.5010   -2.1040 C   0  0  0  0  0  0  0  0  0  0  0  0
   23.9000  -10.3530   -3.3240 C   0  0  0  0  0  0  0  0  0  0  0  0
   22.5390  -10.0070   -3.3670 C   0  0  0  0  0  0  0  0  0  0  0  0
   22.0500   -9.9160   -4.7590 C   0  0  0  0  0  0  0  0  0  0  0  0
   20.7970  -10.7140   -4.8530 C   0  0  0  0  0  0  0  0  0  0  0  0
   19.5870  -10.0620   -4.3780 N   0  0  2  0  0  0  0  0  0  0  0  0
   18.8910  -10.7860   -4.2140 H   0  0  0  0  0  0  0  0  0  0  0  0
   19.0770   -9.2120   -5.4720 C   0  0  0  0  0  0  0  0  0  0  0  0
   19.3760   -7.7760   -5.1120 C   0  0  0  0  0  0  0  0  0  0  0  0
   19.8860   -7.7660   -3.6990 C   0  0  0  0  0  0  0  0  0  0  0  0
   19.6140   -9.1630   -3.2400 C   0  0  2  0  0  0  0  0  0  0  0  0
   18.2400   -9.1770   -2.6760 C   0  0  0  0  0  0  0  0  0  0  0  0
   18.2070   -9.8990   -1.5570 C   0  0  2  0  0  0  0  0  0  0  0  0
   17.1270  -10.1030   -0.7590 O   0  0  0  0  0  0  0  0  0  0  0  0
   17.2190   -9.7250    0.6330 C   0  0  0  0  0  0  0  0  0  0  0  0
   19.6270  -11.7800   -1.8590 O   0  0  0  0  0  0  0  0  0  0  0  0
   19.4950  -12.8510   -1.0130 C   0  0  0  0  0  0  0  0  0  0  0  0
   18.6060  -12.9850   -0.2460 O   0  0  0  0  0  0  0  0  0  0  0  0
   20.5640  -13.9460   -1.0580 C   0  0  2  0  0  0  0  0  0  0  0  0
   21.0530  -14.1240    0.2460 O   0  0  0  0  0  0  0  0  0  0  0  0
   20.8460  -13.3560    0.8100 H   0  0  0  0  0  0  0  0  0  0  0  0
   21.6420  -13.6150   -2.0600 C   0  0  0  0  0  0  0  0  0  0  0  0
   23.0220  -14.1710   -1.7440 C   0  0  0  0  0  0  0  0  0  0  0  0
   23.4310  -15.0770   -2.4000 O   0  0  0  0  0  0  0  0  0  0  0  0
   23.7570  -13.6220   -0.7270 O   0  0  0  0  0  0  0  0  0  0  0  0
   25.1310  -14.1040   -0.6100 C   0  0  0  0  0  0  0  0  0  0  0  0
   19.8420  -15.2150   -1.4830 C   0  0  0  0  0  0  0  0  0  0  0  0
   19.3520  -15.2620   -2.9080 C   0  0  0  0  0  0  0  0  0  0  0  0
   18.0860  -16.0710   -3.1300 C   0  0  0  0  0  0  0  0  0  0  0  0
   16.9100  -15.1170   -3.1910 C   0  0  0  0  0  0  0  0  0  0  0  0
   16.2550  -14.9230   -1.8390 C   0  0  0  0  0  0  0  0  0  0  0  0
   17.3450  -13.7700   -3.7120 C   0  0  0  0  0  0  0  0  0  0  0  0
   15.9660  -15.6420   -4.1020 O   0  0  0  0  0  0  0  0  0  0  0  0
   16.2950  -15.4260   -4.9850 H   0  0  0  0  0  0  0  0  0  0  0  0
  1 24  1  6  0  0  0
  2 19  1  6  0  0  0
  2  1  1  0  0  0  0
  3  2  1  0  0  0  0
  3  4  1  0  0  0  0
  4  5  1  0  0  0  0
  5  6  1  0  0  0  0
  7  6  1  0  0  0  0
  8  7  1  0  0  0  0
  9  8  1  0  0  0  0
  9  5  2  0  0  0  0
 10  9  1  0  0  0  0
 11 10  1  0  0  0  0
 11  3  2  0  0  0  0
 12 11  1  0  0  0  0
 13 12  1  0  0  0  0
 13 14  1  0  0  0  0
 14 15  1  0  0  0  0
 14 19  1  1  0  0  0
 16 17  1  0  0  0  0
 16 14  1  0  0  0  0
 17 18  1  0  0  0  0
 19 18  1  6  0  0  0
 19 20  1  0  0  0  0
 20 21  1  0  0  0  0
 21  1  1  0  0  0  0
 21 22  1  1  0  0  0
 22 23  1  0  0  0  0
 24 25  1  0  0  0  0
 25 26  2  0  0  0  0
 27 30  1  6  0  0  0
 27 25  1  0  0  0  0
 27 28  1  0  0  0  0
 28 29  1  0  0  0  0
 30 31  1  0  0  0  0
 31 33  1  0  0  0  0
 32 31  2  0  0  0  0
 33 34  1  0  0  0  0
 35 27  1  0  0  0  0
 36 35  1  0  0  0  0
 37 36  1  0  0  0  0
 38 37  1  0  0  0  0
 38 39  1  0  0  0  0
 40 38  1  0  0  0  0
 41 38  1  0  0  0  0
 42 41  1  0  0  0  0
M  END
>  <minimizedAffinity>
-7.62902832

$$$$

 OpenBabel12271915433D

 42 46  0  0  1  0  0  0  0  0999 V2000
   22.5900  -12.5680   -2.2140 C   0  0  1  0  0  0  0  0  0  0  0  0
   23.3870  -11.3800   -2.7310 C   0  0  1  0  0  0  0  0  0  0  0  0
   22.5890  -10.2270   -3.1680 C   0  0  0  0  0  0  0  0  0  0  0  0
   21.7010  -10.5340   -4.1990 C   0  0  0  0  0  0  0  0  0  0  0  0
   20.8670   -9.5420   -4.7340 C   0  0  0  0  0  0  0  0  0  0  0  0
   19.9280   -9.6260   -5.7410 O   0  0  0  0  0  0  0  0  0  0  0  0
   19.4700   -8.2930   -6.0220 C   0  0  0  0  0  0  0  0  0  0  0  0
   19.9910   -7.4870   -4.9550 O   0  0  0  0  0  0  0  0  0  0  0  0
   20.8970   -8.2920   -4.2790 C   0  0  0  0  0  0  0  0  0  0  0  0
   21.7710   -7.9610   -3.2530 C   0  0  0  0  0  0  0  0  0  0  0  0
   22.6200   -8.9370   -2.7050 C   0  0  0  0  0  0  0  0  0  0  0  0
   23.4540   -8.3780   -1.6210 C   0  0  0  0  0  0  0  0  0  0  0  0
   23.3420   -9.2880   -0.4470 C   0  0  0  0  0  0  0  0  0  0  0  0
   24.1720  -10.4810   -0.4800 N   0  0  2  0  0  0  0  0  0  0  0  0
   23.7910  -11.1400    0.1940 H   0  0  0  0  0  0  0  0  0  0  0  0
   25.5180  -10.1020   -0.0030 C   0  0  0  0  0  0  0  0  0  0  0  0
   26.4310  -10.0570   -1.2050 C   0  0  0  0  0  0  0  0  0  0  0  0
   25.6640  -10.6100   -2.3720 C   0  0  0  0  0  0  0  0  0  0  0  0
   24.4410  -11.1750   -1.7250 C   0  0  2  0  0  0  0  0  0  0  0  0
   24.7550  -12.5780   -1.3490 C   0  0  0  0  0  0  0  0  0  0  0  0
   23.7230  -13.3730   -1.6280 C   0  0  2  0  0  0  0  0  0  0  0  0
   23.6690  -14.7180   -1.4470 O   0  0  0  0  0  0  0  0  0  0  0  0
   22.8560  -15.5020   -2.3500 C   0  0  0  0  0  0  0  0  0  0  0  0
   21.7280  -12.1890   -1.1160 O   0  0  0  0  0  0  0  0  0  0  0  0
   20.5220  -12.8350   -1.0210 C   0  0  0  0  0  0  0  0  0  0  0  0
   20.3640  -13.8670   -0.4660 O   0  0  0  0  0  0  0  0  0  0  0  0
   19.2990  -12.1880   -1.6750 C   0  0  2  0  0  0  0  0  0  0  0  0
   19.3690  -12.4320   -3.0560 O   0  0  0  0  0  0  0  0  0  0  0  0
   20.2730  -12.6780   -3.3270 H   0  0  0  0  0  0  0  0  0  0  0  0
   19.2100  -10.7220   -1.3330 C   0  0  0  0  0  0  0  0  0  0  0  0
   17.9690  -10.0040   -1.8420 C   0  0  0  0  0  0  0  0  0  0  0  0
   17.8980   -9.7500   -3.0030 O   0  0  0  0  0  0  0  0  0  0  0  0
   16.9700   -9.6730   -0.9640 O   0  0  0  0  0  0  0  0  0  0  0  0
   17.3620   -9.6090    0.4410 C   0  0  0  0  0  0  0  0  0  0  0  0
   18.0910  -12.9190   -1.1140 C   0  0  0  0  0  0  0  0  0  0  0  0
   17.0760  -13.4070   -2.1160 C   0  0  0  0  0  0  0  0  0  0  0  0
   16.8500  -14.9080   -2.1290 C   0  0  0  0  0  0  0  0  0  0  0  0
   17.5840  -15.4950   -3.3170 C   0  0  0  0  0  0  0  0  0  0  0  0
   18.9480  -16.0370   -2.9410 C   0  0  0  0  0  0  0  0  0  0  0  0
   16.7800  -16.6080   -3.9430 C   0  0  0  0  0  0  0  0  0  0  0  0
   17.7320  -14.4790   -4.2880 O   0  0  0  0  0  0  0  0  0  0  0  0
   16.8810  -14.4130   -4.7410 H   0  0  0  0  0  0  0  0  0  0  0  0
  1 21  1  0  0  0  0
  1 24  1  1  0  0  0
  2  1  1  0  0  0  0
  2 19  1  1  0  0  0
  3  2  1  0  0  0  0
  3 11  2  0  0  0  0
  4  3  1  0  0  0  0
  5  9  2  0  0  0  0
  5  4  1  0  0  0  0
  6  5  1  0  0  0  0
  7  6  1  0  0  0  0
  7  8  1  0  0  0  0
  8  9  1  0  0  0  0
  9 10  1  0  0  0  0
 10 11  1  0  0  0  0
 11 12  1  0  0  0  0
 12 13  1  0  0  0  0
 14 19  1  6  0  0  0
 14 13  1  0  0  0  0
 14 16  1  0  0  0  0
 14 15  1  0  0  0  0
 17 16  1  0  0  0  0
 18 17  1  0  0  0  0
 19 18  1  6  0  0  0
 19 20  1  0  0  0  0
 21 22  1  6  0  0  0
 21 20  1  0  0  0  0
 23 22  1  0  0  0  0
 24 25  1  0  0  0  0
 25 26  2  0  0  0  0
 27 30  1  1  0  0  0
 27 35  1  0  0  0  0
 27 25  1  0  0  0  0
 28 27  1  0  0  0  0
 29 28  1  0  0  0  0
 31 30  1  0  0  0  0
 31 33  1  0  0  0  0
 32 31  2  0  0  0  0
 33 34  1  0  0  0  0
 36 35  1  0  0  0  0
 37 36  1  0  0  0  0
 38 39  1  0  0  0  0
 38 37  1  0  0  0  0
 40 38  1  0  0  0  0
 41 38  1  0  0  0  0
 42 41  1  0  0  0  0
M  END
>  <minimizedAffinity>
-7.58412313

$$$$

 OpenBabel12271915433D

 42 46  0  0  1  0  0  0  0  0999 V2000
   23.1770   -9.5900   -2.5810 C   0  0  1  0  0  0  0  0  0  0  0  0
   22.9190  -10.2550   -1.2370 C   0  0  1  0  0  0  0  0  0  0  0  0
   21.5290  -10.6650   -0.9930 C   0  0  0  0  0  0  0  0  0  0  0  0
   20.6270   -9.6020   -1.0420 C   0  0  0  0  0  0  0  0  0  0  0  0
   19.2600   -9.8250   -0.8260 C   0  0  0  0  0  0  0  0  0  0  0  0
   18.2090   -8.9310   -0.8300 O   0  0  0  0  0  0  0  0  0  0  0  0
   17.0360   -9.6360   -0.3890 C   0  0  0  0  0  0  0  0  0  0  0  0
   17.4110  -11.0210   -0.3910 O   0  0  0  0  0  0  0  0  0  0  0  0
   18.7870  -11.0420   -0.5720 C   0  0  0  0  0  0  0  0  0  0  0  0
   19.6640  -12.1160   -0.5190 C   0  0  0  0  0  0  0  0  0  0  0  0
   21.0390  -11.9170   -0.7260 C   0  0  0  0  0  0  0  0  0  0  0  0
   21.7860  -13.1890   -0.6400 C   0  0  0  0  0  0  0  0  0  0  0  0
   22.6620  -13.2830   -1.8410 C   0  0  0  0  0  0  0  0  0  0  0  0
   23.9100  -12.5390   -1.7820 N   0  0  2  0  0  0  0  0  0  0  0  0
   24.2530  -12.4360   -2.7330 H   0  0  0  0  0  0  0  0  0  0  0  0
   24.8920  -13.3680   -1.0540 C   0  0  0  0  0  0  0  0  0  0  0  0
   25.0650  -12.7670    0.3210 C   0  0  0  0  0  0  0  0  0  0  0  0
   24.3310  -11.4560    0.3340 C   0  0  0  0  0  0  0  0  0  0  0  0
   23.9890  -11.2570   -1.1080 C   0  0  2  0  0  0  0  0  0  0  0  0
   25.1300  -10.5380   -1.7310 C   0  0  0  0  0  0  0  0  0  0  0  0
   24.6850   -9.5910   -2.5560 C   0  0  2  0  0  0  0  0  0  0  0  0
   25.4450   -8.7210   -3.2710 O   0  0  0  0  0  0  0  0  0  0  0  0
   25.6900   -9.0080   -4.6670 C   0  0  0  0  0  0  0  0  0  0  0  0
   22.7700  -10.4410   -3.6780 O   0  0  0  0  0  0  0  0  0  0  0  0
   21.9730   -9.8750   -4.6400 C   0  0  0  0  0  0  0  0  0  0  0  0
   22.2690   -8.9190   -5.2680 O   0  0  0  0  0  0  0  0  0  0  0  0
   20.6120  -10.5160   -4.9220 C   0  0  2  0  0  0  0  0  0  0  0  0
   20.4420  -10.5720   -6.3150 O   0  0  0  0  0  0  0  0  0  0  0  0
   21.0450   -9.9560   -6.7700 H   0  0  0  0  0  0  0  0  0  0  0  0
   19.5040   -9.7750   -4.2150 C   0  0  0  0  0  0  0  0  0  0  0  0
   18.7090   -8.8070   -5.0780 C   0  0  0  0  0  0  0  0  0  0  0  0
   17.5360   -8.7180   -4.8960 O   0  0  0  0  0  0  0  0  0  0  0  0
   19.3540   -8.0640   -6.0320 O   0  0  0  0  0  0  0  0  0  0  0  0
   18.5740   -7.7620   -7.2290 C   0  0  0  0  0  0  0  0  0  0  0  0
   20.7020  -11.9350   -4.3870 C   0  0  0  0  0  0  0  0  0  0  0  0
   19.3950  -12.6180   -4.0710 C   0  0  0  0  0  0  0  0  0  0  0  0
   19.5170  -14.0390   -3.5500 C   0  0  0  0  0  0  0  0  0  0  0  0
   18.1240  -14.6050   -3.3660 C   0  0  0  0  0  0  0  0  0  0  0  0
   18.0310  -16.0550   -3.7930 C   0  0  0  0  0  0  0  0  0  0  0  0
   17.6930  -14.4990   -1.9240 C   0  0  0  0  0  0  0  0  0  0  0  0
   17.2290  -13.8280   -4.1360 O   0  0  0  0  0  0  0  0  0  0  0  0
   17.0610  -13.0250   -3.6250 H   0  0  0  0  0  0  0  0  0  0  0  0
  1 24  1  6  0  0  0
  1 21  1  0  0  0  0
  1  2  1  0  0  0  0
  2 19  1  6  0  0  0
  2  3  1  0  0  0  0
  3 11  2  0  0  0  0
  4  3  1  0  0  0  0
  4  5  1  0  0  0  0
  5  9  2  0  0  0  0
  6  5  1  0  0  0  0
  6  7  1  0  0  0  0
  8  7  1  0  0  0  0
  9 10  1  0  0  0  0
  9  8  1  0  0  0  0
 11 12  1  0  0  0  0
 11 10  1  0  0  0  0
 13 14  1  0  0  0  0
 13 12  1  0  0  0  0
 14 19  1  1  0  0  0
 14 16  1  0  0  0  0
 15 14  1  0  0  0  0
 16 17  1  0  0  0  0
 17 18  1  0  0  0  0
 19 20  1  6  0  0  0
 19 18  1  0  0  0  0
 21 22  1  1  0  0  0
 21 20  1  0  0  0  0
 23 22  1  0  0  0  0
 25 24  1  0  0  0  0
 26 25  2  0  0  0  0
 27 25  1  0  0  0  0
 27 35  1  1  0  0  0
 27 30  1  0  0  0  0
 28 27  1  0  0  0  0
 29 28  1  0  0  0  0
 31 32  2  0  0  0  0
 31 30  1  0  0  0  0
 33 31  1  0  0  0  0
 34 33  1  0  0  0  0
 35 36  2  0  0  0  0
 36 37  1  0  0  0  0
 37 38  1  0  0  0  0
 38 40  1  0  0  0  0
 39 38  1  0  0  0  0
 41 42  1  0  0  0  0
 41 38  1  0  0  0  0
M  END
>  <minimizedAffinity>
-7.47369337

$$$$

 OpenBabel12271915433D

 42 46  0  0  1  0  0  0  0  0999 V2000
   21.9980  -10.6090   -3.8720 C   0  0  1  0  0  0  0  0  0  0  0  0
   20.6350   -9.9370   -3.8010 C   0  0  1  0  0  0  0  0  0  0  0  0
   19.5670  -10.7410   -3.1900 C   0  0  0  0  0  0  0  0  0  0  0  0
   19.3350  -11.9430   -3.8580 C   0  0  0  0  0  0  0  0  0  0  0  0
   18.3450  -12.8250   -3.4040 C   0  0  0  0  0  0  0  0  0  0  0  0
   17.9550  -14.0490   -3.9060 O   0  0  0  0  0  0  0  0  0  0  0  0
   16.7870  -14.4670   -3.1800 C   0  0  0  0  0  0  0  0  0  0  0  0
   16.6910  -13.5560   -2.0740 O   0  0  0  0  0  0  0  0  0  0  0  0
   17.6040  -12.5450   -2.3340 C   0  0  0  0  0  0  0  0  0  0  0  0
   17.8160  -11.3550   -1.6520 C   0  0  0  0  0  0  0  0  0  0  0  0
   18.7990  -10.4530   -2.0920 C   0  0  0  0  0  0  0  0  0  0  0  0
   18.8680   -9.2630   -1.2180 C   0  0  0  0  0  0  0  0  0  0  0  0
   20.2960   -9.0500   -0.8520 C   0  0  0  0  0  0  0  0  0  0  0  0
   21.1170   -8.3770   -1.8450 N   0  0  2  0  0  0  0  0  0  0  0  0
   22.0900   -8.5630   -1.6170 H   0  0  0  0  0  0  0  0  0  0  0  0
   20.9050   -6.9240   -1.6890 C   0  0  0  0  0  0  0  0  0  0  0  0
   20.0430   -6.4630   -2.8400 C   0  0  0  0  0  0  0  0  0  0  0  0
   19.9120   -7.6180   -3.7920 C   0  0  0  0  0  0  0  0  0  0  0  0
   20.9110   -8.5960   -3.2640 C   0  0  2  0  0  0  0  0  0  0  0  0
   22.2100   -8.2880   -3.9160 C   0  0  0  0  0  0  0  0  0  0  0  0
   22.8270   -9.4140   -4.2710 C   0  0  2  0  0  0  0  0  0  0  0  0
   24.0170   -9.5130   -4.9180 O   0  0  0  0  0  0  0  0  0  0  0  0
   25.2040   -9.0190   -4.2550 C   0  0  0  0  0  0  0  0  0  0  0  0
   22.4530  -11.0220   -2.5630 O   0  0  0  0  0  0  0  0  0  0  0  0
   23.1730  -12.1880   -2.4940 C   0  0  0  0  0  0  0  0  0  0  0  0
   24.2030  -12.3640   -3.0460 O   0  0  0  0  0  0  0  0  0  0  0  0
   22.6120  -13.3380   -1.6540 C   0  0  2  0  0  0  0  0  0  0  0  0
   22.3970  -14.4310   -2.5080 O   0  0  0  0  0  0  0  0  0  0  0  0
   22.3620  -14.1500   -3.4410 H   0  0  0  0  0  0  0  0  0  0  0  0
   21.3730  -12.9120   -0.9060 C   0  0  0  0  0  0  0  0  0  0  0  0
   20.4120  -14.0330   -0.5400 C   0  0  0  0  0  0  0  0  0  0  0  0
   20.1920  -14.8770   -1.3510 O   0  0  0  0  0  0  0  0  0  0  0  0
   19.8290  -14.0490    0.6990 O   0  0  0  0  0  0  0  0  0  0  0  0
   20.5110  -14.8560    1.7070 C   0  0  0  0  0  0  0  0  0  0  0  0
   23.7080  -13.7020   -0.6650 C   0  0  0  0  0  0  0  0  0  0  0  0
   24.3300  -12.5600    0.0980 C   0  0  0  0  0  0  0  0  0  0  0  0
   25.8480  -12.5550    0.1300 C   0  0  0  0  0  0  0  0  0  0  0  0
   26.3370  -11.2420   -0.4480 C   0  0  0  0  0  0  0  0  0  0  0  0
   25.3190  -10.1310   -0.2940 C   0  0  0  0  0  0  0  0  0  0  0  0
   27.6210  -10.8140    0.2180 C   0  0  0  0  0  0  0  0  0  0  0  0
   26.6140  -11.4420   -1.8190 O   0  0  0  0  0  0  0  0  0  0  0  0
   27.4770  -11.8770   -1.8590 H   0  0  0  0  0  0  0  0  0  0  0  0
  1  2  1  0  0  0  0
  1 24  1  1  0  0  0
  2 19  1  1  0  0  0
  2  3  1  0  0  0  0
  3 11  2  0  0  0  0
  4  5  1  0  0  0  0
  4  3  1  0  0  0  0
  5  9  2  0  0  0  0
  6  5  1  0  0  0  0
  6  7  1  0  0  0  0
  7  8  1  0  0  0  0
  9  8  1  0  0  0  0
  9 10  1  0  0  0  0
 11 10  1  0  0  0  0
 11 12  1  0  0  0  0
 12 13  1  0  0  0  0
 14 19  1  6  0  0  0
 14 16  1  0  0  0  0
 14 15  1  0  0  0  0
 14 13  1  0  0  0  0
 17 16  1  0  0  0  0
 18 19  1  0  0  0  0
 18 17  1  0  0  0  0
 19 20  1  6  0  0  0
 21 22  1  6  0  0  0
 21 20  1  0  0  0  0
 21  1  1  0  0  0  0
 22 23  1  0  0  0  0
 24 25  1  0  0  0  0
 25 27  1  0  0  0  0
 26 25  2  0  0  0  0
 27 30  1  1  0  0  0
 27 35  1  0  0  0  0
 28 27  1  0  0  0  0
 29 28  1  0  0  0  0
 30 31  1  0  0  0  0
 31 33  1  0  0  0  0
 32 31  2  0  0  0  0
 33 34  1  0  0  0  0
 35 36  1  0  0  0  0
 36 37  1  0  0  0  0
 38 39  1  0  0  0  0
 38 37  1  0  0  0  0
 38 40  1  0  0  0  0
 41 38  1  0  0  0  0
 42 41  1  0  0  0  0
M  END
>  <minimizedAffinity>
-7.29787922

$$$$

 OpenBabel12271915433D

 42 46  0  0  1  0  0  0  0  0999 V2000
   21.6660  -10.9160   -3.3880 C   0  0  1  0  0  0  0  0  0  0  0  0
   22.1490   -9.5530   -3.8600 C   0  0  1  0  0  0  0  0  0  0  0  0
   21.1040   -8.6550   -4.3680 C   0  0  0  0  0  0  0  0  0  0  0  0
   20.4090   -9.1810   -5.4570 C   0  0  0  0  0  0  0  0  0  0  0  0
   19.3810   -8.4460   -6.0630 C   0  0  0  0  0  0  0  0  0  0  0  0
   18.5750   -8.7720   -7.1340 O   0  0  0  0  0  0  0  0  0  0  0  0
   17.7970   -7.6100   -7.4640 C   0  0  0  0  0  0  0  0  0  0  0  0
   18.0030   -6.7010   -6.3720 O   0  0  0  0  0  0  0  0  0  0  0  0
   19.0400   -7.2370   -5.6220 C   0  0  0  0  0  0  0  0  0  0  0  0
   19.7150   -6.6920   -4.5400 C   0  0  0  0  0  0  0  0  0  0  0  0
   20.7540   -7.4070   -3.9200 C   0  0  0  0  0  0  0  0  0  0  0  0
   21.3250   -6.6530   -2.7850 C   0  0  0  0  0  0  0  0  0  0  0  0
   21.3760   -7.5680   -1.6110 C   0  0  0  0  0  0  0  0  0  0  0  0
   22.4970   -8.4930   -1.5690 N   0  0  2  0  0  0  0  0  0  0  0  0
   22.2590   -9.2360   -0.9170 H   0  0  0  0  0  0  0  0  0  0  0  0
   23.6520   -7.7700   -1.0020 C   0  0  0  0  0  0  0  0  0  0  0  0
   24.6050   -7.4710   -2.1350 C   0  0  0  0  0  0  0  0  0  0  0  0
   24.1020   -8.2010   -3.3480 C   0  0  0  0  0  0  0  0  0  0  0  0
   23.0320   -9.0800   -2.7830 C   0  0  2  0  0  0  0  0  0  0  0  0
   23.6840  -10.3490   -2.3680 C   0  0  0  0  0  0  0  0  0  0  0  0
   22.9270  -11.3910   -2.7120 C   0  0  2  0  0  0  0  0  0  0  0  0
   23.2240  -12.7020   -2.5190 O   0  0  0  0  0  0  0  0  0  0  0  0
   23.8910  -13.0830   -1.2940 C   0  0  0  0  0  0  0  0  0  0  0  0
   20.6560  -10.7910   -2.3600 O   0  0  0  0  0  0  0  0  0  0  0  0
   19.4580  -11.4200   -2.5860 C   0  0  0  0  0  0  0  0  0  0  0  0
   19.1080  -11.8210   -3.6410 O   0  0  0  0  0  0  0  0  0  0  0  0
   18.5070  -11.6150   -1.4020 C   0  0  2  0  0  0  0  0  0  0  0  0
   17.2160  -11.8180   -1.9160 O   0  0  0  0  0  0  0  0  0  0  0  0
   17.1480  -11.5090   -2.8380 H   0  0  0  0  0  0  0  0  0  0  0  0
   18.5900  -10.4560   -0.4400 C   0  0  0  0  0  0  0  0  0  0  0  0
   17.2950   -9.6850   -0.2310 C   0  0  0  0  0  0  0  0  0  0  0  0
   16.9190   -9.5030    0.8840 O   0  0  0  0  0  0  0  0  0  0  0  0
   16.6010   -9.2190   -1.3160 O   0  0  0  0  0  0  0  0  0  0  0  0
   17.2860   -8.2090   -2.1180 C   0  0  0  0  0  0  0  0  0  0  0  0
   18.9610  -12.8890   -0.7100 C   0  0  0  0  0  0  0  0  0  0  0  0
   18.1780  -14.1390   -1.0240 C   0  0  0  0  0  0  0  0  0  0  0  0
   18.7590  -15.0050   -2.1270 C   0  0  0  0  0  0  0  0  0  0  0  0
   17.6990  -15.2070   -3.1900 C   0  0  0  0  0  0  0  0  0  0  0  0
   17.8720  -16.5140   -3.9360 C   0  0  0  0  0  0  0  0  0  0  0  0
   16.3210  -15.1800   -2.5790 C   0  0  0  0  0  0  0  0  0  0  0  0
   17.7820  -14.1290   -4.1020 O   0  0  0  0  0  0  0  0  0  0  0  0
   17.3360  -13.3830   -3.6790 H   0  0  0  0  0  0  0  0  0  0  0  0
  1 21  1  0  0  0  0
  1 24  1  1  0  0  0
  2  1  1  0  0  0  0
  2 19  1  1  0  0  0
  3 11  2  0  0  0  0
  3  2  1  0  0  0  0
  4  3  1  0  0  0  0
  5  9  2  0  0  0  0
  5  4  1  0  0  0  0
  6  5  1  0  0  0  0
  7  6  1  0  0  0  0
  7  8  1  0  0  0  0
  8  9  1  0  0  0  0
  9 10  1  0  0  0  0
 10 11  1  0  0  0  0
 11 12  1  0  0  0  0
 12 13  1  0  0  0  0
 13 14  1  0  0  0  0
 14 19  1  6  0  0  0
 14 16  1  0  0  0  0
 14 15  1  0  0  0  0
 17 16  1  0  0  0  0
 18 17  1  0  0  0  0
 19 18  1  6  0  0  0
 19 20  1  0  0  0  0
 21 22  1  6  0  0  0
 21 20  1  0  0  0  0
 22 23  1  0  0  0  0
 25 24  1  0  0  0  0
 25 27  1  0  0  0  0
 26 25  2  0  0  0  0
 27 35  1  1  0  0  0
 27 30  1  0  0  0  0
 28 27  1  0  0  0  0
 29 28  1  0  0  0  0
 30 31  1  0  0  0  0
 31 32  2  0  0  0  0
 33 31  1  0  0  0  0
 34 33  1  0  0  0  0
 36 35  1  0  0  0  0
 37 36  1  0  0  0  0
 38 40  1  0  0  0  0
 38 37  1  0  0  0  0
 39 38  1  0  0  0  0
 41 42  1  0  0  0  0
 41 38  1  0  0  0  0
M  END
>  <minimizedAffinity>
-7.27381611

$$$$

 OpenBabel12271915433D

 42 46  0  0  1  0  0  0  0  0999 V2000
   22.5460   -8.4170   -1.4170 C   0  0  1  0  0  0  0  0  0  0  0  0
   23.6880   -9.3600   -1.0720 C   0  0  1  0  0  0  0  0  0  0  0  0
   23.4100  -10.7880   -1.2740 C   0  0  0  0  0  0  0  0  0  0  0  0
   22.3300  -11.2490   -0.5210 C   0  0  0  0  0  0  0  0  0  0  0  0
   21.9360  -12.5920   -0.5970 C   0  0  0  0  0  0  0  0  0  0  0  0
   20.9100  -13.2500    0.0500 O   0  0  0  0  0  0  0  0  0  0  0  0
   21.0370  -14.6520   -0.2450 C   0  0  0  0  0  0  0  0  0  0  0  0
   22.0130  -14.7250   -1.2950 O   0  0  0  0  0  0  0  0  0  0  0  0
   22.5730  -13.4590   -1.3810 C   0  0  0  0  0  0  0  0  0  0  0  0
   23.6510  -13.0250   -2.1410 C   0  0  0  0  0  0  0  0  0  0  0  0
   24.0670  -11.6850   -2.0770 C   0  0  0  0  0  0  0  0  0  0  0  0
   25.2170  -11.4340   -2.9710 C   0  0  0  0  0  0  0  0  0  0  0  0
   24.9040  -10.2270   -3.7860 C   0  0  0  0  0  0  0  0  0  0  0  0
   25.1210   -8.9440   -3.1370 N   0  0  2  0  0  0  0  0  0  0  0  0
   24.6010   -8.2440   -3.6590 H   0  0  0  0  0  0  0  0  0  0  0  0
   26.5530   -8.6110   -3.2720 C   0  0  0  0  0  0  0  0  0  0  0  0
   27.1990   -8.8220   -1.9230 C   0  0  0  0  0  0  0  0  0  0  0  0
   26.0990   -9.0880   -0.9360 C   0  0  0  0  0  0  0  0  0  0  0  0
   24.8670   -8.7660   -1.7200 C   0  0  2  0  0  0  0  0  0  0  0  0
   24.5980   -7.3170   -1.5340 C   0  0  0  0  0  0  0  0  0  0  0  0
   23.2940   -7.1100   -1.3530 C   0  0  2  0  0  0  0  0  0  0  0  0
   22.6920   -5.9140   -1.1210 O   0  0  0  0  0  0  0  0  0  0  0  0
   23.4950   -4.8280   -0.6060 C   0  0  0  0  0  0  0  0  0  0  0  0
   22.1130   -8.5910   -2.7860 O   0  0  0  0  0  0  0  0  0  0  0  0
   20.7750   -8.8160   -2.9920 C   0  0  0  0  0  0  0  0  0  0  0  0
   19.9240   -8.4870   -2.2400 O   0  0  0  0  0  0  0  0  0  0  0  0
   20.3500   -9.5410   -4.2710 C   0  0  2  0  0  0  0  0  0  0  0  0
   21.1230   -9.0350   -5.3290 O   0  0  0  0  0  0  0  0  0  0  0  0
   21.5200   -8.1760   -5.0990 H   0  0  0  0  0  0  0  0  0  0  0  0
   18.8660   -9.4130   -4.5030 C   0  0  0  0  0  0  0  0  0  0  0  0
   18.4490   -8.3470   -5.5060 C   0  0  0  0  0  0  0  0  0  0  0  0
   17.9220   -7.3610   -5.0980 O   0  0  0  0  0  0  0  0  0  0  0  0
   18.6880   -8.5430   -6.8410 O   0  0  0  0  0  0  0  0  0  0  0  0
   18.4700   -7.3810   -7.6980 C   0  0  0  0  0  0  0  0  0  0  0  0
   20.7120  -11.0020   -4.0610 C   0  0  0  0  0  0  0  0  0  0  0  0
   19.6670  -11.8630   -3.3980 C   0  0  0  0  0  0  0  0  0  0  0  0
   19.8260  -13.3570   -3.6160 C   0  0  0  0  0  0  0  0  0  0  0  0
   18.5300  -14.0410   -3.2290 C   0  0  0  0  0  0  0  0  0  0  0  0
   18.6990  -15.5350   -3.0520 C   0  0  0  0  0  0  0  0  0  0  0  0
   17.9860  -13.4630   -1.9460 C   0  0  0  0  0  0  0  0  0  0  0  0
   17.5810  -13.7900   -4.2460 O   0  0  0  0  0  0  0  0  0  0  0  0
   17.2520  -12.8940   -4.0920 H   0  0  0  0  0  0  0  0  0  0  0  0
  1 24  1  6  0  0  0
  1 21  1  0  0  0  0
  1  2  1  0  0  0  0
  2 19  1  6  0  0  0
  3  2  1  0  0  0  0
  3  4  1  0  0  0  0
  5  4  1  0  0  0  0
  5  6  1  0  0  0  0
  7  6  1  0  0  0  0
  8  7  1  0  0  0  0
  9  8  1  0  0  0  0
  9  5  2  0  0  0  0
 10 11  1  0  0  0  0
 10  9  1  0  0  0  0
 11  3  2  0  0  0  0
 12 11  1  0  0  0  0
 13 14  1  0  0  0  0
 13 12  1  0  0  0  0
 14 19  1  1  0  0  0
 15 14  1  0  0  0  0
 16 14  1  0  0  0  0
 16 17  1  0  0  0  0
 17 18  1  0  0  0  0
 19 20  1  1  0  0  0
 19 18  1  0  0  0  0
 20 21  1  0  0  0  0
 21 22  1  1  0  0  0
 22 23  1  0  0  0  0
 25 24  1  0  0  0  0
 25 26  2  0  0  0  0
 27 30  1  6  0  0  0
 27 35  1  0  0  0  0
 27 25  1  0  0  0  0
 28 29  1  0  0  0  0
 28 27  1  0  0  0  0
 31 32  2  0  0  0  0
 31 30  1  0  0  0  0
 33 31  1  0  0  0  0
 34 33  1  0  0  0  0
 35 36  2  0  0  0  0
 37 36  1  0  0  0  0
 37 38  1  0  0  0  0
 38 39  1  0  0  0  0
 38 40  1  0  0  0  0
 41 42  1  0  0  0  0
 41 38  1  0  0  0  0
M  END
>  <minimizedAffinity>
-7.13921642

$$$$

 OpenBabel12271915433D

 42 46  0  0  1  0  0  0  0  0999 V2000
   23.3530  -10.9330   -0.5810 C   0  0  1  0  0  0  0  0  0  0  0  0
   21.8420  -10.8330   -0.7290 C   0  0  1  0  0  0  0  0  0  0  0  0
   21.3510   -9.6050   -1.3680 C   0  0  0  0  0  0  0  0  0  0  0  0
   21.7170   -8.4460   -0.6830 C   0  0  0  0  0  0  0  0  0  0  0  0
   21.3240   -7.1880   -1.1610 C   0  0  0  0  0  0  0  0  0  0  0  0
   21.5730   -5.9320   -0.6480 O   0  0  0  0  0  0  0  0  0  0  0  0
   20.8080   -4.9870   -1.4160 C   0  0  0  0  0  0  0  0  0  0  0  0
   20.3260   -5.7300   -2.5460 O   0  0  0  0  0  0  0  0  0  0  0  0
   20.5970   -7.0620   -2.2690 C   0  0  0  0  0  0  0  0  0  0  0  0
   20.2210   -8.2000   -2.9680 C   0  0  0  0  0  0  0  0  0  0  0  0
   20.5980   -9.4720   -2.5060 C   0  0  0  0  0  0  0  0  0  0  0  0
   20.1080  -10.5390   -3.4040 C   0  0  0  0  0  0  0  0  0  0  0  0
   21.2540  -11.4380   -3.7100 C   0  0  0  0  0  0  0  0  0  0  0  0
   21.5780  -12.4300   -2.6970 N   0  0  2  0  0  0  0  0  0  0  0  0
   22.5240  -12.7560   -2.8770 H   0  0  0  0  0  0  0  0  0  0  0  0
   20.6770  -13.5820   -2.8960 C   0  0  0  0  0  0  0  0  0  0  0  0
   19.6430  -13.5480   -1.7960 C   0  0  0  0  0  0  0  0  0  0  0  0
   20.0580  -12.4800   -0.8240 C   0  0  0  0  0  0  0  0  0  0  0  0
   21.4380  -12.1340   -1.2840 C   0  0  2  0  0  0  0  0  0  0  0  0
   22.3740  -13.0490   -0.5820 C   0  0  0  0  0  0  0  0  0  0  0  0
   23.4520  -12.3810   -0.1730 C   0  0  2  0  0  0  0  0  0  0  0  0
   24.4980  -12.8900    0.5280 O   0  0  0  0  0  0  0  0  0  0  0  0
   25.6180  -13.4380   -0.2050 C   0  0  0  0  0  0  0  0  0  0  0  0
   24.0190  -10.8050   -1.8580 O   0  0  0  0  0  0  0  0  0  0  0  0
   25.1740  -10.0660   -1.8860 C   0  0  0  0  0  0  0  0  0  0  0  0
   25.4830   -9.2870   -1.0530 O   0  0  0  0  0  0  0  0  0  0  0  0
   26.1260  -10.2540   -3.0700 C   0  0  2  0  0  0  0  0  0  0  0  0
   26.7510  -11.5020   -2.9260 O   0  0  0  0  0  0  0  0  0  0  0  0
   26.6850  -11.8280   -2.0100 H   0  0  0  0  0  0  0  0  0  0  0  0
   27.1000   -9.1070   -3.1740 C   0  0  0  0  0  0  0  0  0  0  0  0
   28.5080   -9.3970   -2.6760 C   0  0  0  0  0  0  0  0  0  0  0  0
   29.2540   -9.9830   -3.3960 O   0  0  0  0  0  0  0  0  0  0  0  0
   28.8840   -8.9800   -1.4260 O   0  0  0  0  0  0  0  0  0  0  0  0
   28.8890  -10.0120   -0.3930 C   0  0  0  0  0  0  0  0  0  0  0  0
   25.2460  -10.2920   -4.3090 C   0  0  0  0  0  0  0  0  0  0  0  0
   24.9300   -8.9640   -4.9490 C   0  0  0  0  0  0  0  0  0  0  0  0
   23.6610   -8.2940   -4.4550 C   0  0  0  0  0  0  0  0  0  0  0  0
   23.9330   -6.8130   -4.2820 C   0  0  0  0  0  0  0  0  0  0  0  0
   24.3750   -6.4700   -2.8740 C   0  0  0  0  0  0  0  0  0  0  0  0
   24.9980   -6.3520   -5.2460 C   0  0  0  0  0  0  0  0  0  0  0  0
   22.7470   -6.1090   -4.5880 O   0  0  0  0  0  0  0  0  0  0  0  0
   22.6960   -6.0730   -5.5530 H   0  0  0  0  0  0  0  0  0  0  0  0
  1 24  1  6  0  0  0
  1 21  1  0  0  0  0
  2 19  1  6  0  0  0
  2  1  1  0  0  0  0
  3  2  1  0  0  0  0
  3  4  1  0  0  0  0
  5  4  1  0  0  0  0
  5  6  1  0  0  0  0
  7  6  1  0  0  0  0
  8  9  1  0  0  0  0
  8  7  1  0  0  0  0
  9  5  2  0  0  0  0
 10 11  1  0  0  0  0
 10  9  1  0  0  0  0
 11  3  2  0  0  0  0
 12 11  1  0  0  0  0
 13 12  1  0  0  0  0
 13 14  1  0  0  0  0
 14 19  1  1  0  0  0
 15 14  1  0  0  0  0
 16 14  1  0  0  0  0
 16 17  1  0  0  0  0
 17 18  1  0  0  0  0
 19 18  1  1  0  0  0
 19 20  1  0  0  0  0
 20 21  1  0  0  0  0
 21 22  1  1  0  0  0
 23 22  1  0  0  0  0
 25 24  1  0  0  0  0
 25 26  2  0  0  0  0
 27 35  1  6  0  0  0
 27 28  1  0  0  0  0
 27 25  1  0  0  0  0
 28 29  1  0  0  0  0
 30 27  1  0  0  0  0
 30 31  1  0  0  0  0
 31 33  1  0  0  0  0
 32 31  2  0  0  0  0
 33 34  1  0  0  0  0
 36 37  1  0  0  0  0
 36 35  1  0  0  0  0
 37 38  1  0  0  0  0
 38 39  1  0  0  0  0
 40 38  1  0  0  0  0
 41 38  1  0  0  0  0
 42 41  1  0  0  0  0
M  END
>  <minimizedAffinity>
-7.00783205

$$$$
