
 OpenBabel12271915423D

 32 35  0  0  1  0  0  0  0  0999 V2000
   22.6090  -13.5910   -0.7690 C   0  0  0  0  0  0  0  0  0  0  0  0
   21.2930  -13.7190   -1.0780 C   0  0  0  0  0  0  0  0  0  0  0  0
   20.8630  -14.7760   -1.9610 C   0  0  0  0  0  0  0  0  0  0  0  0
   21.8480  -15.5980   -2.4690 C   0  0  0  0  0  0  0  0  0  0  0  0
   23.1430  -15.4760   -2.2010 N   0  0  0  0  0  0  0  0  0  0  0  0
   23.4930  -14.4620   -1.3470 C   0  0  0  0  0  0  0  0  0  0  0  0
   19.4630  -14.9510   -2.3180 C   0  0  0  0  0  0  0  0  0  0  0  0
   18.4450  -14.1240   -1.8090 C   0  0  0  0  0  0  0  0  0  0  0  0
   17.0910  -14.2970   -2.1750 C   0  0  0  0  0  0  0  0  0  0  0  0
   16.8040  -15.3510   -3.0600 C   0  0  0  0  0  0  0  0  0  0  0  0
   15.6520  -15.7960   -3.6030 N   0  0  0  0  0  0  0  0  0  0  0  0
   14.7230  -15.4330   -3.4680 H   0  0  0  0  0  0  0  0  0  0  0  0
   15.8000  -16.8790   -4.4320 N   0  0  0  0  0  0  0  0  0  0  0  0
   17.1230  -17.1010   -4.3840 C   0  0  0  0  0  0  0  0  0  0  0  0
   17.7840  -18.2230   -5.1330 C   0  0  0  0  0  0  0  0  0  0  0  0
   17.7790  -16.1880   -3.5600 C   0  0  0  0  0  0  0  0  0  0  0  0
   19.1050  -15.9860   -3.1960 C   0  0  0  0  0  0  0  0  0  0  0  0
   23.2170  -12.7870    0.0860 O   0  0  0  0  0  0  0  0  0  0  0  0
   24.3260  -11.7880    0.0530 C   0  0  0  0  0  0  0  0  0  0  0  0
   23.8820  -10.4320   -0.4880 C   0  0  1  0  0  0  0  0  0  0  0  0
   24.9540   -9.3980   -0.1990 N   0  0  0  0  0  0  0  0  0  0  0  0
   25.6180   -9.3260   -0.9790 H   0  0  0  0  0  0  0  0  0  0  0  0
   24.5350   -8.4820   -0.0670 H   0  0  0  0  0  0  0  0  0  0  0  0
   25.4540   -9.6400    0.6490 H   0  0  0  0  0  0  0  0  0  0  0  0
   23.5470  -10.3970   -1.9890 C   0  0  0  0  0  0  0  0  0  0  0  0
   22.0490  -10.3760   -2.1480 C   0  0  0  0  0  0  0  0  0  0  0  0
   21.2500   -9.9610   -1.0700 C   0  0  0  0  0  0  0  0  0  0  0  0
   19.8660   -9.9950   -1.1860 C   0  0  0  0  0  0  0  0  0  0  0  0
   19.2710  -10.4440   -2.3520 C   0  0  0  0  0  0  0  0  0  0  0  0
   17.3920  -10.4720   -2.4930 Br  0  0  0  0  0  0  0  0  0  0  0  0
   20.0570  -10.8800   -3.4160 C   0  0  0  0  0  0  0  0  0  0  0  0
   21.4430  -10.8420   -3.3300 C   0  0  0  0  0  0  0  0  0  0  0  0
  1 18  1  0  0  0  0
  2  1  1  0  0  0  0
  3  2  2  0  0  0  0
  4  5  2  0  0  0  0
  4  3  1  0  0  0  0
  5  6  1  0  0  0  0
  6  1  2  0  0  0  0
  7  3  1  0  0  0  0
  7  8  2  0  0  0  0
  9  8  1  0  0  0  0
 10  9  2  0  0  0  0
 11 12  1  0  0  0  0
 11 10  1  0  0  0  0
 13 14  2  0  0  0  0
 13 11  1  0  0  0  0
 14 16  1  0  0  0  0
 15 14  1  0  0  0  0
 16 17  2  0  0  0  0
 16 10  1  0  0  0  0
 17  7  1  0  0  0  0
 19 18  1  0  0  0  0
 20 25  1  6  0  0  0
 20 21  1  0  0  0  0
 20 19  1  0  0  0  0
 21 23  1  0  0  0  0
 21 24  1  0  0  0  0
 22 21  1  0  0  0  0
 26 25  1  0  0  0  0
 26 27  2  0  0  0  0
 28 27  1  0  0  0  0
 29 28  2  0  0  0  0
 30 29  1  0  0  0  0
 31 32  2  0  0  0  0
 31 29  1  0  0  0  0
 32 26  1  0  0  0  0
M  END
>  <minimizedAffinity>
-8.88111973

$$$$

 OpenBabel12271915423D

 32 35  0  0  1  0  0  0  0  0999 V2000
   22.5300  -13.0950   -1.2730 C   0  0  0  0  0  0  0  0  0  0  0  0
   21.2450  -13.2520   -1.6820 C   0  0  0  0  0  0  0  0  0  0  0  0
   20.6910  -14.5780   -1.8140 C   0  0  0  0  0  0  0  0  0  0  0  0
   21.5360  -15.6320   -1.5310 C   0  0  0  0  0  0  0  0  0  0  0  0
   22.8030  -15.5030   -1.1550 N   0  0  0  0  0  0  0  0  0  0  0  0
   23.2720  -14.2200   -1.0350 C   0  0  0  0  0  0  0  0  0  0  0  0
   19.3190  -14.7930   -2.2470 C   0  0  0  0  0  0  0  0  0  0  0  0
   18.2570  -13.9690   -1.8310 C   0  0  0  0  0  0  0  0  0  0  0  0
   16.9310  -14.1820   -2.2700 C   0  0  0  0  0  0  0  0  0  0  0  0
   16.7170  -15.2730   -3.1310 C   0  0  0  0  0  0  0  0  0  0  0  0
   15.6070  -15.7590   -3.7250 N   0  0  0  0  0  0  0  0  0  0  0  0
   14.6660  -15.4110   -3.6590 H   0  0  0  0  0  0  0  0  0  0  0  0
   15.8250  -16.8670   -4.5040 N   0  0  0  0  0  0  0  0  0  0  0  0
   17.1460  -17.0610   -4.3690 C   0  0  0  0  0  0  0  0  0  0  0  0
   17.8720  -18.1960   -5.0350 C   0  0  0  0  0  0  0  0  0  0  0  0
   17.7350  -16.1070   -3.5410 C   0  0  0  0  0  0  0  0  0  0  0  0
   19.0330  -15.8650   -3.1060 C   0  0  0  0  0  0  0  0  0  0  0  0
   23.2100  -12.0000   -0.9780 O   0  0  0  0  0  0  0  0  0  0  0  0
   24.2330  -11.5830    0.0260 C   0  0  0  0  0  0  0  0  0  0  0  0
   25.5970  -11.3070   -0.6020 C   0  0  1  0  0  0  0  0  0  0  0  0
   25.4820  -11.3880   -2.1130 N   0  0  0  0  0  0  0  0  0  0  0  0
   25.2750  -10.4680   -2.5180 H   0  0  0  0  0  0  0  0  0  0  0  0
   26.3570  -11.7110   -2.5160 H   0  0  0  0  0  0  0  0  0  0  0  0
   24.7550  -12.0440   -2.3730 H   0  0  0  0  0  0  0  0  0  0  0  0
   26.2390   -9.9620   -0.2220 C   0  0  0  0  0  0  0  0  0  0  0  0
   27.6360  -10.2190    0.2820 C   0  0  0  0  0  0  0  0  0  0  0  0
   28.4930   -9.1300    0.5140 C   0  0  0  0  0  0  0  0  0  0  0  0
   29.8010   -9.3600    0.9210 C   0  0  0  0  0  0  0  0  0  0  0  0
   30.2670  -10.6520    1.0890 C   0  0  0  0  0  0  0  0  0  0  0  0
   32.0410  -10.9420    1.6520 Br  0  0  0  0  0  0  0  0  0  0  0  0
   29.4300  -11.7360    0.8380 C   0  0  0  0  0  0  0  0  0  0  0  0
   28.1130  -11.5340    0.4440 C   0  0  0  0  0  0  0  0  0  0  0  0
  1  6  2  0  0  0  0
  1 18  1  0  0  0  0
  2  1  1  0  0  0  0
  3  2  2  0  0  0  0
  3  4  1  0  0  0  0
  4  5  2  0  0  0  0
  5  6  1  0  0  0  0
  7  8  1  0  0  0  0
  7  3  1  0  0  0  0
  9  8  2  0  0  0  0
 10  9  1  0  0  0  0
 11 12  1  0  0  0  0
 11 10  1  0  0  0  0
 13 14  2  0  0  0  0
 13 11  1  0  0  0  0
 14 16  1  0  0  0  0
 15 14  1  0  0  0  0
 16 10  2  0  0  0  0
 16 17  1  0  0  0  0
 17  7  2  0  0  0  0
 18 19  1  0  0  0  0
 20 25  1  6  0  0  0
 20 19  1  0  0  0  0
 21 20  1  0  0  0  0
 22 21  1  0  0  0  0
 23 21  1  0  0  0  0
 24 21  1  0  0  0  0
 25 26  1  0  0  0  0
 26 32  2  0  0  0  0
 26 27  1  0  0  0  0
 27 28  2  0  0  0  0
 28 29  1  0  0  0  0
 29 30  1  0  0  0  0
 31 29  2  0  0  0  0
 32 31  1  0  0  0  0
M  END
>  <minimizedAffinity>
-8.30973244

$$$$

 OpenBabel12271915423D

 32 35  0  0  1  0  0  0  0  0999 V2000
   20.0250  -11.4770   -2.8290 C   0  0  0  0  0  0  0  0  0  0  0  0
   21.3340  -11.4980   -3.1870 C   0  0  0  0  0  0  0  0  0  0  0  0
   22.3120  -10.8230   -2.3690 C   0  0  0  0  0  0  0  0  0  0  0  0
   21.8360  -10.1600   -1.2550 C   0  0  0  0  0  0  0  0  0  0  0  0
   20.5580  -10.1050   -0.9000 N   0  0  0  0  0  0  0  0  0  0  0  0
   19.6740  -10.7740   -1.7080 C   0  0  0  0  0  0  0  0  0  0  0  0
   23.7260  -10.8200   -2.7130 C   0  0  0  0  0  0  0  0  0  0  0  0
   24.1920  -11.1700   -3.9940 C   0  0  0  0  0  0  0  0  0  0  0  0
   25.5660  -11.1500   -4.3190 C   0  0  0  0  0  0  0  0  0  0  0  0
   26.4540  -10.7810   -3.2930 C   0  0  0  0  0  0  0  0  0  0  0  0
   27.7970  -10.6620   -3.2510 N   0  0  0  0  0  0  0  0  0  0  0  0
   28.4570  -10.8240   -3.9920 H   0  0  0  0  0  0  0  0  0  0  0  0
   28.2910  -10.2730   -2.0310 N   0  0  0  0  0  0  0  0  0  0  0  0
   27.1760  -10.1540   -1.2930 C   0  0  0  0  0  0  0  0  0  0  0  0
   27.2020   -9.7580    0.1570 C   0  0  0  0  0  0  0  0  0  0  0  0
   26.0280  -10.4500   -2.0240 C   0  0  0  0  0  0  0  0  0  0  0  0
   24.6680  -10.4630   -1.7360 C   0  0  0  0  0  0  0  0  0  0  0  0
   18.9820  -12.1030   -3.3480 O   0  0  0  0  0  0  0  0  0  0  0  0
   18.6000  -13.5070   -3.6810 C   0  0  0  0  0  0  0  0  0  0  0  0
   18.3880  -14.3700   -2.4400 C   0  0  1  0  0  0  0  0  0  0  0  0
   16.9560  -14.8710   -2.4120 N   0  0  0  0  0  0  0  0  0  0  0  0
   16.8740  -15.7820   -2.8780 H   0  0  0  0  0  0  0  0  0  0  0  0
   16.6420  -14.9870   -1.4530 H   0  0  0  0  0  0  0  0  0  0  0  0
   16.3440  -14.2020   -2.8640 H   0  0  0  0  0  0  0  0  0  0  0  0
   19.3390  -15.5720   -2.3020 C   0  0  0  0  0  0  0  0  0  0  0  0
   20.6920  -15.0680   -1.8690 C   0  0  0  0  0  0  0  0  0  0  0  0
   21.8260  -15.4090   -2.6260 C   0  0  0  0  0  0  0  0  0  0  0  0
   23.0840  -15.0010   -2.2020 C   0  0  0  0  0  0  0  0  0  0  0  0
   23.2280  -14.2710   -1.0360 C   0  0  0  0  0  0  0  0  0  0  0  0
   24.9430  -13.7170   -0.4840 Br  0  0  0  0  0  0  0  0  0  0  0  0
   22.1120  -13.9500   -0.2680 C   0  0  0  0  0  0  0  0  0  0  0  0
   20.8410  -14.3340   -0.6770 C   0  0  0  0  0  0  0  0  0  0  0  0
  1  6  1  0  0  0  0
  2  1  2  0  0  0  0
  2  3  1  0  0  0  0
  3  4  2  0  0  0  0
  4  5  1  0  0  0  0
  6  5  2  0  0  0  0
  7  3  1  0  0  0  0
  7 17  2  0  0  0  0
  8  7  1  0  0  0  0
  9  8  2  0  0  0  0
  9 10  1  0  0  0  0
 10 11  1  0  0  0  0
 10 16  2  0  0  0  0
 11 13  1  0  0  0  0
 12 11  1  0  0  0  0
 13 14  2  0  0  0  0
 14 15  1  0  0  0  0
 16 17  1  0  0  0  0
 16 14  1  0  0  0  0
 18  1  1  0  0  0  0
 19 18  1  0  0  0  0
 20 19  1  6  0  0  0
 20 21  1  0  0  0  0
 20 25  1  0  0  0  0
 21 23  1  0  0  0  0
 22 21  1  0  0  0  0
 24 21  1  0  0  0  0
 25 26  1  0  0  0  0
 26 32  2  0  0  0  0
 27 28  2  0  0  0  0
 27 26  1  0  0  0  0
 28 29  1  0  0  0  0
 29 30  1  0  0  0  0
 29 31  2  0  0  0  0
 32 31  1  0  0  0  0
M  END
>  <minimizedAffinity>
-8.16846752

$$$$

 OpenBabel12271915423D

 32 35  0  0  1  0  0  0  0  0999 V2000
   18.9330  -11.1880   -1.4720 C   0  0  0  0  0  0  0  0  0  0  0  0
   20.2760  -11.3770   -1.5170 C   0  0  0  0  0  0  0  0  0  0  0  0
   21.1630  -10.3360   -1.0580 C   0  0  0  0  0  0  0  0  0  0  0  0
   20.5730   -9.1700   -0.6130 C   0  0  0  0  0  0  0  0  0  0  0  0
   19.2630   -8.9530   -0.5850 N   0  0  0  0  0  0  0  0  0  0  0  0
   18.4670   -9.9820   -1.0210 C   0  0  0  0  0  0  0  0  0  0  0  0
   22.6100  -10.4960   -1.0860 C   0  0  0  0  0  0  0  0  0  0  0  0
   23.3880  -10.5390    0.0850 C   0  0  0  0  0  0  0  0  0  0  0  0
   24.7890  -10.7080    0.0440 C   0  0  0  0  0  0  0  0  0  0  0  0
   25.3770  -10.8130   -1.2290 C   0  0  0  0  0  0  0  0  0  0  0  0
   26.6550  -10.9730   -1.6310 N   0  0  0  0  0  0  0  0  0  0  0  0
   27.4790  -11.0540   -1.0600 H   0  0  0  0  0  0  0  0  0  0  0  0
   26.8150  -11.0260   -2.9930 N   0  0  0  0  0  0  0  0  0  0  0  0
   25.5560  -10.8860   -3.4380 C   0  0  0  0  0  0  0  0  0  0  0  0
   25.2110  -10.8620   -4.9000 C   0  0  0  0  0  0  0  0  0  0  0  0
   24.6420  -10.7570   -2.3940 C   0  0  0  0  0  0  0  0  0  0  0  0
   23.2620  -10.6050   -2.3240 C   0  0  0  0  0  0  0  0  0  0  0  0
   17.9380  -12.0210   -1.7270 O   0  0  0  0  0  0  0  0  0  0  0  0
   17.6390  -13.0990   -2.7150 C   0  0  0  0  0  0  0  0  0  0  0  0
   17.4350  -14.4610   -2.0580 C   0  0  1  0  0  0  0  0  0  0  0  0
   16.0040  -14.9180   -2.2760 N   0  0  0  0  0  0  0  0  0  0  0  0
   15.9220  -15.4830   -3.1290 H   0  0  0  0  0  0  0  0  0  0  0  0
   15.6950  -15.4920   -1.4960 H   0  0  0  0  0  0  0  0  0  0  0  0
   15.3880  -14.1160   -2.3400 H   0  0  0  0  0  0  0  0  0  0  0  0
   18.3900  -15.5720   -2.5290 C   0  0  0  0  0  0  0  0  0  0  0  0
   19.7920  -15.2100   -2.1130 C   0  0  0  0  0  0  0  0  0  0  0  0
   20.8290  -15.2840   -3.0590 C   0  0  0  0  0  0  0  0  0  0  0  0
   22.1340  -15.0100   -2.6710 C   0  0  0  0  0  0  0  0  0  0  0  0
   22.4210  -14.6760   -1.3590 C   0  0  0  0  0  0  0  0  0  0  0  0
   24.1970  -14.2990   -0.8560 Br  0  0  0  0  0  0  0  0  0  0  0  0
   21.4020  -14.6260   -0.4110 C   0  0  0  0  0  0  0  0  0  0  0  0
   20.0860  -14.8800   -0.7770 C   0  0  0  0  0  0  0  0  0  0  0  0
  1  6  1  0  0  0  0
  2  1  2  0  0  0  0
  2  3  1  0  0  0  0
  3  4  2  0  0  0  0
  4  5  1  0  0  0  0
  6  5  2  0  0  0  0
  7  3  1  0  0  0  0
  7  8  2  0  0  0  0
  9  8  1  0  0  0  0
 10  9  2  0  0  0  0
 11 10  1  0  0  0  0
 11 12  1  0  0  0  0
 13 11  1  0  0  0  0
 14 13  2  0  0  0  0
 14 16  1  0  0  0  0
 15 14  1  0  0  0  0
 16 17  2  0  0  0  0
 16 10  1  0  0  0  0
 17  7  1  0  0  0  0
 18  1  1  0  0  0  0
 19 18  1  0  0  0  0
 20 19  1  6  0  0  0
 21 20  1  0  0  0  0
 21 23  1  0  0  0  0
 22 21  1  0  0  0  0
 24 21  1  0  0  0  0
 25 26  1  0  0  0  0
 25 20  1  0  0  0  0
 26 32  2  0  0  0  0
 27 28  2  0  0  0  0
 27 26  1  0  0  0  0
 28 29  1  0  0  0  0
 29 30  1  0  0  0  0
 29 31  2  0  0  0  0
 32 31  1  0  0  0  0
M  END
>  <minimizedAffinity>
-7.98965168

$$$$

 OpenBabel12271915423D

 32 35  0  0  1  0  0  0  0  0999 V2000
   24.0750  -12.4670   -0.2090 C   0  0  0  0  0  0  0  0  0  0  0  0
   25.4260  -12.3560   -0.2780 C   0  0  0  0  0  0  0  0  0  0  0  0
   26.0370  -11.0490   -0.3040 C   0  0  0  0  0  0  0  0  0  0  0  0
   25.1840   -9.9650   -0.2830 C   0  0  0  0  0  0  0  0  0  0  0  0
   23.8590  -10.0500   -0.2430 N   0  0  0  0  0  0  0  0  0  0  0  0
   23.3330  -11.3160   -0.2070 C   0  0  0  0  0  0  0  0  0  0  0  0
   27.4820  -10.8830   -0.3750 C   0  0  0  0  0  0  0  0  0  0  0  0
   28.1100  -10.1800   -1.4200 C   0  0  0  0  0  0  0  0  0  0  0  0
   29.5120  -10.0140   -1.4700 C   0  0  0  0  0  0  0  0  0  0  0  0
   30.2560  -10.6040   -0.4330 C   0  0  0  0  0  0  0  0  0  0  0  0
   31.5800  -10.6460   -0.1730 N   0  0  0  0  0  0  0  0  0  0  0  0
   32.3290  -10.2390   -0.7060 H   0  0  0  0  0  0  0  0  0  0  0  0
   31.9090  -11.3420    0.9630 N   0  0  0  0  0  0  0  0  0  0  0  0
   30.7100  -11.7440    1.4130 C   0  0  0  0  0  0  0  0  0  0  0  0
   30.5480  -12.5760    2.6540 C   0  0  0  0  0  0  0  0  0  0  0  0
   29.6700  -11.3120    0.5940 C   0  0  0  0  0  0  0  0  0  0  0  0
   28.2860  -11.4460    0.6270 C   0  0  0  0  0  0  0  0  0  0  0  0
   23.3060  -13.5330   -0.0650 O   0  0  0  0  0  0  0  0  0  0  0  0
   22.5870  -14.4940   -0.9520 C   0  0  0  0  0  0  0  0  0  0  0  0
   21.1580  -14.7680   -0.4890 C   0  0  1  0  0  0  0  0  0  0  0  0
   21.1160  -14.7930    1.0280 N   0  0  0  0  0  0  0  0  0  0  0  0
   20.9030  -13.8640    1.4070 H   0  0  0  0  0  0  0  0  0  0  0  0
   20.3920  -15.4300    1.3490 H   0  0  0  0  0  0  0  0  0  0  0  0
   22.0030  -15.1140    1.3970 H   0  0  0  0  0  0  0  0  0  0  0  0
   20.0970  -13.7790   -1.0010 C   0  0  0  0  0  0  0  0  0  0  0  0
   19.1040  -14.5330   -1.8480 C   0  0  0  0  0  0  0  0  0  0  0  0
   17.7330  -14.2650   -1.6990 C   0  0  0  0  0  0  0  0  0  0  0  0
   16.8060  -14.9970   -2.4310 C   0  0  0  0  0  0  0  0  0  0  0  0
   17.2240  -15.9920   -3.2960 C   0  0  0  0  0  0  0  0  0  0  0  0
   15.9520  -16.9660   -4.2880 Br  0  0  0  0  0  0  0  0  0  0  0  0
   18.5800  -16.2800   -3.4300 C   0  0  0  0  0  0  0  0  0  0  0  0
   19.5280  -15.5530   -2.7200 C   0  0  0  0  0  0  0  0  0  0  0  0
  1  6  1  0  0  0  0
  1 18  1  0  0  0  0
  2  1  2  0  0  0  0
  3  4  2  0  0  0  0
  3  2  1  0  0  0  0
  4  5  1  0  0  0  0
  5  6  2  0  0  0  0
  7  3  1  0  0  0  0
  7 17  2  0  0  0  0
  8  7  1  0  0  0  0
  9  8  2  0  0  0  0
  9 10  1  0  0  0  0
 10 11  1  0  0  0  0
 10 16  2  0  0  0  0
 11 13  1  0  0  0  0
 12 11  1  0  0  0  0
 13 14  2  0  0  0  0
 14 15  1  0  0  0  0
 16 17  1  0  0  0  0
 16 14  1  0  0  0  0
 19 20  1  0  0  0  0
 19 18  1  0  0  0  0
 20 25  1  1  0  0  0
 20 21  1  0  0  0  0
 21 23  1  0  0  0  0
 21 24  1  0  0  0  0
 21 22  1  0  0  0  0
 26 27  1  0  0  0  0
 26 25  1  0  0  0  0
 28 27  2  0  0  0  0
 29 28  1  0  0  0  0
 30 29  1  0  0  0  0
 31 29  2  0  0  0  0
 31 32  1  0  0  0  0
 32 26  2  0  0  0  0
M  END
>  <minimizedAffinity>
-7.75497437

$$$$

 OpenBabel12271915423D

 32 35  0  0  1  0  0  0  0  0999 V2000
   22.4820  -13.3720   -0.7740 C   0  0  0  0  0  0  0  0  0  0  0  0
   21.1800  -13.4960   -1.1370 C   0  0  0  0  0  0  0  0  0  0  0  0
   20.7430  -14.6720   -1.8500 C   0  0  0  0  0  0  0  0  0  0  0  0
   21.7100  -15.6110   -2.1460 C   0  0  0  0  0  0  0  0  0  0  0  0
   22.9930  -15.4990   -1.8240 N   0  0  0  0  0  0  0  0  0  0  0  0
   23.3490  -14.3670   -1.1370 C   0  0  0  0  0  0  0  0  0  0  0  0
   19.3570  -14.8470   -2.2580 C   0  0  0  0  0  0  0  0  0  0  0  0
   18.3280  -13.9920   -1.8220 C   0  0  0  0  0  0  0  0  0  0  0  0
   16.9880  -14.1650   -2.2370 C   0  0  0  0  0  0  0  0  0  0  0  0
   16.7270  -15.2490   -3.0940 C   0  0  0  0  0  0  0  0  0  0  0  0
   15.5920  -15.7030   -3.6670 N   0  0  0  0  0  0  0  0  0  0  0  0
   14.6630  -15.3270   -3.5840 H   0  0  0  0  0  0  0  0  0  0  0  0
   15.7630  -16.8170   -4.4500 N   0  0  0  0  0  0  0  0  0  0  0  0
   17.0800  -17.0490   -4.3390 C   0  0  0  0  0  0  0  0  0  0  0  0
   17.7600  -18.2040   -5.0190 C   0  0  0  0  0  0  0  0  0  0  0  0
   17.7110  -16.1130   -3.5230 C   0  0  0  0  0  0  0  0  0  0  0  0
   19.0240  -15.9100   -3.1120 C   0  0  0  0  0  0  0  0  0  0  0  0
   23.0850  -12.4570   -0.0330 O   0  0  0  0  0  0  0  0  0  0  0  0
   23.4640  -11.0190   -0.1620 C   0  0  0  0  0  0  0  0  0  0  0  0
   24.8000  -10.8230   -0.8740 C   0  0  1  0  0  0  0  0  0  0  0  0
   25.8530  -11.6970   -0.2190 N   0  0  0  0  0  0  0  0  0  0  0  0
   25.9120  -12.6130   -0.6780 H   0  0  0  0  0  0  0  0  0  0  0  0
   26.7680  -11.2600   -0.2890 H   0  0  0  0  0  0  0  0  0  0  0  0
   25.6410  -11.8240    0.7640 H   0  0  0  0  0  0  0  0  0  0  0  0
   24.7900  -11.1030   -2.3860 C   0  0  0  0  0  0  0  0  0  0  0  0
   25.0150   -9.8060   -3.1190 C   0  0  0  0  0  0  0  0  0  0  0  0
   25.2490   -8.6330   -2.3800 C   0  0  0  0  0  0  0  0  0  0  0  0
   25.3990   -7.4220   -3.0440 C   0  0  0  0  0  0  0  0  0  0  0  0
   25.3090   -7.3610   -4.4230 C   0  0  0  0  0  0  0  0  0  0  0  0
   25.5250   -5.7100   -5.3040 Br  0  0  0  0  0  0  0  0  0  0  0  0
   25.0530   -8.5160   -5.1590 C   0  0  0  0  0  0  0  0  0  0  0  0
   24.9140   -9.7430   -4.5210 C   0  0  0  0  0  0  0  0  0  0  0  0
  1 18  1  0  0  0  0
  2  1  2  0  0  0  0
  3  2  1  0  0  0  0
  4  3  2  0  0  0  0
  4  5  1  0  0  0  0
  5  6  2  0  0  0  0
  6  1  1  0  0  0  0
  7  3  1  0  0  0  0
  7  8  2  0  0  0  0
  9  8  1  0  0  0  0
 10  9  2  0  0  0  0
 11 12  1  0  0  0  0
 11 10  1  0  0  0  0
 13 14  2  0  0  0  0
 13 11  1  0  0  0  0
 14 16  1  0  0  0  0
 15 14  1  0  0  0  0
 16 17  2  0  0  0  0
 16 10  1  0  0  0  0
 17  7  1  0  0  0  0
 19 18  1  0  0  0  0
 20 25  1  6  0  0  0
 20 21  1  0  0  0  0
 20 19  1  0  0  0  0
 21 24  1  0  0  0  0
 22 21  1  0  0  0  0
 23 21  1  0  0  0  0
 26 25  1  0  0  0  0
 26 27  2  0  0  0  0
 28 27  1  0  0  0  0
 29 28  2  0  0  0  0
 30 29  1  0  0  0  0
 31 32  2  0  0  0  0
 31 29  1  0  0  0  0
 32 26  1  0  0  0  0
M  END
>  <minimizedAffinity>
-7.7501359

$$$$

 OpenBabel12271915423D

 32 35  0  0  1  0  0  0  0  0999 V2000
   24.7760  -12.0830   -0.1620 C   0  0  0  0  0  0  0  0  0  0  0  0
   23.4840  -12.3480   -0.4840 C   0  0  0  0  0  0  0  0  0  0  0  0
   23.1050  -13.6810   -0.8860 C   0  0  0  0  0  0  0  0  0  0  0  0
   24.1130  -14.6220   -0.9430 C   0  0  0  0  0  0  0  0  0  0  0  0
   25.3870  -14.3790   -0.6580 N   0  0  0  0  0  0  0  0  0  0  0  0
   25.6890  -13.0980   -0.2710 C   0  0  0  0  0  0  0  0  0  0  0  0
   21.7320  -14.0110   -1.2380 C   0  0  0  0  0  0  0  0  0  0  0  0
   21.3790  -15.2370   -1.8330 C   0  0  0  0  0  0  0  0  0  0  0  0
   20.0400  -15.5500   -2.1580 C   0  0  0  0  0  0  0  0  0  0  0  0
   19.0740  -14.5670   -1.8770 C   0  0  0  0  0  0  0  0  0  0  0  0
   17.7370  -14.5280   -2.0550 N   0  0  0  0  0  0  0  0  0  0  0  0
   17.1440  -15.2400   -2.4470 H   0  0  0  0  0  0  0  0  0  0  0  0
   17.1480  -13.3600   -1.6440 N   0  0  0  0  0  0  0  0  0  0  0  0
   18.1950  -12.6510   -1.1930 C   0  0  0  0  0  0  0  0  0  0  0  0
   18.0550  -11.2590   -0.6440 C   0  0  0  0  0  0  0  0  0  0  0  0
   19.3930  -13.3510   -1.3110 C   0  0  0  0  0  0  0  0  0  0  0  0
   20.7170  -13.0760   -0.9870 C   0  0  0  0  0  0  0  0  0  0  0  0
   25.3320  -10.9890    0.3310 O   0  0  0  0  0  0  0  0  0  0  0  0
   26.4600  -10.0780   -0.0220 C   0  0  0  0  0  0  0  0  0  0  0  0
   26.0190   -8.9020   -0.8900 C   0  0  1  0  0  0  0  0  0  0  0  0
   26.8940   -7.6990   -0.5920 N   0  0  0  0  0  0  0  0  0  0  0  0
   27.7050   -7.6670   -1.2210 H   0  0  0  0  0  0  0  0  0  0  0  0
   26.3680   -6.8390   -0.7240 H   0  0  0  0  0  0  0  0  0  0  0  0
   27.2120   -7.7280    0.3700 H   0  0  0  0  0  0  0  0  0  0  0  0
   26.0260   -9.1610   -2.4060 C   0  0  0  0  0  0  0  0  0  0  0  0
   24.6380   -9.5600   -2.8340 C   0  0  0  0  0  0  0  0  0  0  0  0
   23.5340   -8.8550   -2.3250 C   0  0  0  0  0  0  0  0  0  0  0  0
   22.2470   -9.2530   -2.6670 C   0  0  0  0  0  0  0  0  0  0  0  0
   22.0460  -10.3420   -3.4950 C   0  0  0  0  0  0  0  0  0  0  0  0
   20.2940  -10.8590   -3.9540 Br  0  0  0  0  0  0  0  0  0  0  0  0
   23.1350  -11.0600   -3.9830 C   0  0  0  0  0  0  0  0  0  0  0  0
   24.4330  -10.6750   -3.6690 C   0  0  0  0  0  0  0  0  0  0  0  0
  1 18  1  0  0  0  0
  2  1  2  0  0  0  0
  3  2  1  0  0  0  0
  4  3  2  0  0  0  0
  4  5  1  0  0  0  0
  5  6  2  0  0  0  0
  6  1  1  0  0  0  0
  7 17  1  0  0  0  0
  7  3  1  0  0  0  0
  8  7  2  0  0  0  0
  9 10  2  0  0  0  0
  9  8  1  0  0  0  0
 10 16  1  0  0  0  0
 11 10  1  0  0  0  0
 11 13  1  0  0  0  0
 12 11  1  0  0  0  0
 13 14  2  0  0  0  0
 14 15  1  0  0  0  0
 16 14  1  0  0  0  0
 16 17  2  0  0  0  0
 19 18  1  0  0  0  0
 20 25  1  6  0  0  0
 20 21  1  0  0  0  0
 20 19  1  0  0  0  0
 21 24  1  0  0  0  0
 22 21  1  0  0  0  0
 23 21  1  0  0  0  0
 26 25  1  0  0  0  0
 26 27  2  0  0  0  0
 28 27  1  0  0  0  0
 29 28  2  0  0  0  0
 30 29  1  0  0  0  0
 31 32  2  0  0  0  0
 31 29  1  0  0  0  0
 32 26  1  0  0  0  0
M  END
>  <minimizedAffinity>
-7.69642591

$$$$

 OpenBabel12271915423D

 32 35  0  0  1  0  0  0  0  0999 V2000
   22.7540  -12.2380   -0.4890 C   0  0  0  0  0  0  0  0  0  0  0  0
   23.8040  -11.4040   -0.2740 C   0  0  0  0  0  0  0  0  0  0  0  0
   25.1520  -11.9100   -0.3680 C   0  0  0  0  0  0  0  0  0  0  0  0
   25.2910  -13.2530   -0.6530 C   0  0  0  0  0  0  0  0  0  0  0  0
   24.2790  -14.0920   -0.8410 N   0  0  0  0  0  0  0  0  0  0  0  0
   23.0210  -13.5540   -0.7520 C   0  0  0  0  0  0  0  0  0  0  0  0
   26.3070  -11.0520   -0.1470 C   0  0  0  0  0  0  0  0  0  0  0  0
   26.2870   -9.6730   -0.4220 C   0  0  0  0  0  0  0  0  0  0  0  0
   27.4110   -8.8490   -0.1910 C   0  0  0  0  0  0  0  0  0  0  0  0
   28.5640   -9.4790    0.3110 C   0  0  0  0  0  0  0  0  0  0  0  0
   29.7880   -9.0120    0.6360 N   0  0  0  0  0  0  0  0  0  0  0  0
   30.1260   -8.0660    0.5770 H   0  0  0  0  0  0  0  0  0  0  0  0
   30.6530   -9.9710    1.0970 N   0  0  0  0  0  0  0  0  0  0  0  0
   29.9050  -11.0850    1.0440 C   0  0  0  0  0  0  0  0  0  0  0  0
   30.4320  -12.4350    1.4400 C   0  0  0  0  0  0  0  0  0  0  0  0
   28.6190  -10.8310    0.5730 C   0  0  0  0  0  0  0  0  0  0  0  0
   27.4920  -11.6150    0.3510 C   0  0  0  0  0  0  0  0  0  0  0  0
   21.4590  -11.9860   -0.5660 O   0  0  0  0  0  0  0  0  0  0  0  0
   20.4870  -11.5530   -1.6130 C   0  0  0  0  0  0  0  0  0  0  0  0
   19.0360  -11.8130   -1.2150 C   0  0  1  0  0  0  0  0  0  0  0  0
   18.1530  -11.7250   -2.4450 N   0  0  0  0  0  0  0  0  0  0  0  0
   18.0400  -12.6450   -2.8870 H   0  0  0  0  0  0  0  0  0  0  0  0
   17.2270  -11.3920   -2.1910 H   0  0  0  0  0  0  0  0  0  0  0  0
   18.5480  -11.0750   -3.1140 H   0  0  0  0  0  0  0  0  0  0  0  0
   18.7760  -13.1540   -0.5080 C   0  0  0  0  0  0  0  0  0  0  0  0
   18.5050  -14.2060   -1.5530 C   0  0  0  0  0  0  0  0  0  0  0  0
   17.1780  -14.4710   -1.9330 C   0  0  0  0  0  0  0  0  0  0  0  0
   16.9140  -15.4790   -2.8510 C   0  0  0  0  0  0  0  0  0  0  0  0
   17.9470  -16.2290   -3.3850 C   0  0  0  0  0  0  0  0  0  0  0  0
   17.5680  -17.5850   -4.6370 Br  0  0  0  0  0  0  0  0  0  0  0  0
   19.2620  -15.9880   -2.9950 C   0  0  0  0  0  0  0  0  0  0  0  0
   19.5540  -14.9760   -2.0900 C   0  0  0  0  0  0  0  0  0  0  0  0
  1  2  2  0  0  0  0
  3  2  1  0  0  0  0
  3  7  1  0  0  0  0
  4  3  2  0  0  0  0
  5  6  2  0  0  0  0
  5  4  1  0  0  0  0
  6  1  1  0  0  0  0
  7 17  2  0  0  0  0
  8  9  2  0  0  0  0
  8  7  1  0  0  0  0
  9 10  1  0  0  0  0
 10 16  2  0  0  0  0
 10 11  1  0  0  0  0
 11 13  1  0  0  0  0
 12 11  1  0  0  0  0
 14 13  2  0  0  0  0
 14 15  1  0  0  0  0
 16 14  1  0  0  0  0
 17 16  1  0  0  0  0
 18  1  1  0  0  0  0
 19 18  1  0  0  0  0
 20 19  1  6  0  0  0
 20 25  1  0  0  0  0
 21 23  1  0  0  0  0
 21 20  1  0  0  0  0
 22 21  1  0  0  0  0
 24 21  1  0  0  0  0
 26 25  1  0  0  0  0
 27 26  1  0  0  0  0
 28 27  2  0  0  0  0
 29 31  2  0  0  0  0
 29 28  1  0  0  0  0
 30 29  1  0  0  0  0
 31 32  1  0  0  0  0
 32 26  2  0  0  0  0
M  END
>  <minimizedAffinity>
-7.66025352

$$$$

 OpenBabel12271915423D

 32 35  0  0  1  0  0  0  0  0999 V2000
   20.2010   -9.6250   -1.6110 C   0  0  0  0  0  0  0  0  0  0  0  0
   21.3080  -10.3810   -1.3930 C   0  0  0  0  0  0  0  0  0  0  0  0
   22.4980   -9.7700   -0.8520 C   0  0  0  0  0  0  0  0  0  0  0  0
   22.4410   -8.4130   -0.6070 C   0  0  0  0  0  0  0  0  0  0  0  0
   21.3790   -7.6500   -0.8370 N   0  0  0  0  0  0  0  0  0  0  0  0
   20.2730   -8.2850   -1.3400 C   0  0  0  0  0  0  0  0  0  0  0  0
   23.7060  -10.5420   -0.6010 C   0  0  0  0  0  0  0  0  0  0  0  0
   23.7150  -11.9490   -0.5920 C   0  0  0  0  0  0  0  0  0  0  0  0
   24.8980  -12.6860   -0.3600 C   0  0  0  0  0  0  0  0  0  0  0  0
   26.0680  -11.9440   -0.1180 C   0  0  0  0  0  0  0  0  0  0  0  0
   27.3410  -12.3110    0.1390 N   0  0  0  0  0  0  0  0  0  0  0  0
   27.7150  -13.2420    0.2090 H   0  0  0  0  0  0  0  0  0  0  0  0
   28.2030  -11.2610    0.3250 N   0  0  0  0  0  0  0  0  0  0  0  0
   27.4000  -10.1960    0.1730 C   0  0  0  0  0  0  0  0  0  0  0  0
   27.8920   -8.7830    0.3080 C   0  0  0  0  0  0  0  0  0  0  0  0
   26.0860  -10.5660   -0.1030 C   0  0  0  0  0  0  0  0  0  0  0  0
   24.9100   -9.8660   -0.3500 C   0  0  0  0  0  0  0  0  0  0  0  0
   18.9830   -9.9740   -1.9870 O   0  0  0  0  0  0  0  0  0  0  0  0
   17.8330  -10.7320   -1.4110 C   0  0  0  0  0  0  0  0  0  0  0  0
   17.5800  -12.0550   -2.1290 C   0  0  1  0  0  0  0  0  0  0  0  0
   18.3020  -12.0510   -3.4640 N   0  0  0  0  0  0  0  0  0  0  0  0
   19.2440  -12.4490   -3.3760 H   0  0  0  0  0  0  0  0  0  0  0  0
   17.7930  -12.6120   -4.1420 H   0  0  0  0  0  0  0  0  0  0  0  0
   18.3670  -11.1060   -3.8230 H   0  0  0  0  0  0  0  0  0  0  0  0
   17.9820  -13.3180   -1.3480 C   0  0  0  0  0  0  0  0  0  0  0  0
   17.8900  -14.5050   -2.2710 C   0  0  0  0  0  0  0  0  0  0  0  0
   16.6260  -14.9520   -2.6910 C   0  0  0  0  0  0  0  0  0  0  0  0
   16.5270  -16.0810   -3.4940 C   0  0  0  0  0  0  0  0  0  0  0  0
   17.6630  -16.7740   -3.8720 C   0  0  0  0  0  0  0  0  0  0  0  0
   17.5080  -18.2980   -4.9690 Br  0  0  0  0  0  0  0  0  0  0  0  0
   18.9170  -16.3510   -3.4390 C   0  0  0  0  0  0  0  0  0  0  0  0
   19.0450  -15.2160   -2.6490 C   0  0  0  0  0  0  0  0  0  0  0  0
  1  2  2  0  0  0  0
  1  6  1  0  0  0  0
  2  3  1  0  0  0  0
  3  4  2  0  0  0  0
  3  7  1  0  0  0  0
  5  4  1  0  0  0  0
  6  5  2  0  0  0  0
  7  8  2  0  0  0  0
  7 17  1  0  0  0  0
  8  9  1  0  0  0  0
  9 10  2  0  0  0  0
 10 16  1  0  0  0  0
 10 11  1  0  0  0  0
 11 12  1  0  0  0  0
 11 13  1  0  0  0  0
 14 15  1  0  0  0  0
 14 13  2  0  0  0  0
 16 14  1  0  0  0  0
 17 16  2  0  0  0  0
 18  1  1  0  0  0  0
 18 19  1  0  0  0  0
 20 19  1  1  0  0  0
 20 25  1  0  0  0  0
 21 22  1  0  0  0  0
 21 20  1  0  0  0  0
 23 21  1  0  0  0  0
 24 21  1  0  0  0  0
 26 25  1  0  0  0  0
 27 26  2  0  0  0  0
 28 27  1  0  0  0  0
 29 28  2  0  0  0  0
 29 31  1  0  0  0  0
 30 29  1  0  0  0  0
 31 32  2  0  0  0  0
 32 26  1  0  0  0  0
M  END
>  <minimizedAffinity>
-7.5349102

$$$$
