
 OpenBabel12271915493D

 37 41  0  0  1  0  0  0  0  0999 V2000
   18.9350  -10.3530   -2.2270 C   0  0  2  0  0  0  0  0  0  0  0  0
   19.6140  -10.1330   -0.9880 O   0  0  0  0  0  0  0  0  0  0  0  0
   20.7280   -9.4030   -0.9680 C   0  0  0  0  0  0  0  0  0  0  0  0
   21.0280   -8.8350    0.0740 O   0  0  0  0  0  0  0  0  0  0  0  0
   21.5140   -9.3210   -2.2050 C   0  0  1  0  0  0  0  0  0  0  0  0
   21.1760   -9.9670   -3.3860 C   0  0  0  0  0  0  0  0  0  0  0  0
   21.6750   -9.9780   -4.4980 O   0  0  0  0  0  0  0  0  0  0  0  0
   19.8900  -10.8240   -3.3180 C   0  0  0  0  0  0  0  0  0  0  0  0
   18.3160   -9.0130   -2.6270 C   0  0  0  0  0  0  0  0  0  0  0  0
   17.1090   -8.5840   -1.8010 C   0  0  0  0  0  0  0  0  0  0  0  0
   16.6490   -7.3440   -2.5460 C   0  0  0  0  0  0  0  0  0  0  0  0
   17.0510   -7.5540   -4.0060 C   0  0  0  0  0  0  0  0  0  0  0  0
   17.8080   -8.8700   -4.0530 C   0  0  0  0  0  0  0  0  0  0  0  0
   22.7630   -8.4270   -2.0620 C   0  0  0  0  0  0  0  0  0  0  0  0
   24.0040   -9.0940   -1.4680 C   0  0  0  0  0  0  0  0  0  0  0  0
   25.2120   -8.4580   -1.2490 N   0  0  0  0  0  0  0  0  0  0  0  0
   25.9760   -9.4170   -0.7200 C   0  0  0  0  0  0  0  0  0  0  0  0
   27.3070   -9.4000   -0.3110 N   0  0  0  0  0  0  0  0  0  0  0  0
   27.8850  -10.4730    0.1420 C   0  0  0  0  0  0  0  0  0  0  0  0
   29.3400  -10.4660    0.5910 C   0  0  0  0  0  0  0  0  0  0  0  0
   27.1690  -11.7660    0.2120 C   0  0  0  0  0  0  0  0  0  0  0  0
   25.9030  -11.7710   -0.1860 C   0  0  0  0  0  0  0  0  0  0  0  0
   25.0900  -13.0310   -0.1810 C   0  0  0  0  0  0  0  0  0  0  0  0
   25.2730  -10.5820   -0.6550 N   0  0  0  0  0  0  0  0  0  0  0  0
   24.0380  -10.4090   -1.1740 N   0  0  0  0  0  0  0  0  0  0  0  0
   17.7750  -11.3500   -1.9360 C   0  0  0  0  0  0  0  0  0  0  0  0
   18.1760  -12.3070   -0.8220 C   0  0  0  0  0  0  0  0  0  0  0  0
   20.7070  -14.9650   -1.5420 C   0  0  0  0  0  0  0  0  0  0  0  0
   20.0370  -15.8170   -2.3650 N   0  0  0  0  0  0  0  0  0  0  0  0
   18.7660  -15.5110   -2.6770 C   0  0  0  0  0  0  0  0  0  0  0  0
   18.1320  -14.3920   -2.1860 C   0  0  0  0  0  0  0  0  0  0  0  0
   18.8300  -13.5240   -1.3470 C   0  0  0  0  0  0  0  0  0  0  0  0
   20.1410  -13.8260   -1.0120 C   0  0  0  0  0  0  0  0  0  0  0  0
   22.9770  -15.5690   -2.4170 C   0  0  0  0  0  0  0  0  0  0  0  0
   22.1310  -15.2830   -1.1930 C   0  0  0  0  0  0  0  0  0  0  0  0
   18.0190  -16.4470   -3.5950 C   0  0  0  0  0  0  0  0  0  0  0  0
   16.5370  -16.1350   -3.6270 C   0  0  0  0  0  0  0  0  0  0  0  0
  1 26  1  1  0  0  0
  1  2  1  0  0  0  0
  2  3  1  0  0  0  0
  3  4  2  0  0  0  0
  5 14  1  6  0  0  0
  5  3  1  0  0  0  0
  6  8  1  0  0  0  0
  6  5  1  0  0  0  0
  7  6  2  0  0  0  0
  8  1  1  0  0  0  0
  9  1  1  0  0  0  0
  9 10  1  0  0  0  0
 11 10  1  0  0  0  0
 12 11  1  0  0  0  0
 13 12  1  0  0  0  0
 13  9  1  0  0  0  0
 14 15  1  0  0  0  0
 15 16  2  0  0  0  0
 15 25  2  0  0  0  0
 16 17  2  0  0  0  0
 17 24  1  0  0  0  0
 17 18  2  0  0  0  0
 18 19  2  0  0  0  0
 19 21  1  0  0  0  0
 19 20  1  0  0  0  0
 22 23  1  0  0  0  0
 22 21  2  0  0  0  0
 24 22  1  0  0  0  0
 25 24  1  0  0  0  0
 26 27  1  0  0  0  0
 28 35  1  0  0  0  0
 28 33  1  0  0  0  0
 29 28  2  0  0  0  0
 30 29  2  0  0  0  0
 30 31  1  0  0  0  0
 31 32  2  0  0  0  0
 32 33  1  0  0  0  0
 32 27  1  0  0  0  0
 34 35  1  0  0  0  0
 36 30  1  0  0  0  0
 37 36  1  0  0  0  0
M  END
>  <minimizedAffinity>
-8.55811024

$$$$

 OpenBabel12271915493D

 37 41  0  0  1  0  0  0  0  0999 V2000
   18.9800  -10.3280   -2.2410 C   0  0  2  0  0  0  0  0  0  0  0  0
   19.6080  -10.0900   -0.9780 O   0  0  0  0  0  0  0  0  0  0  0  0
   20.7220   -9.3610   -0.9230 C   0  0  0  0  0  0  0  0  0  0  0  0
   20.9800   -8.7770    0.1210 O   0  0  0  0  0  0  0  0  0  0  0  0
   21.5590   -9.3010   -2.1270 C   0  0  1  0  0  0  0  0  0  0  0  0
   21.2690   -9.9640   -3.3110 C   0  0  0  0  0  0  0  0  0  0  0  0
   21.8140   -9.9940   -4.4010 O   0  0  0  0  0  0  0  0  0  0  0  0
   19.9800  -10.8180   -3.2840 C   0  0  0  0  0  0  0  0  0  0  0  0
   18.3820   -8.9940   -2.6870 C   0  0  0  0  0  0  0  0  0  0  0  0
   17.1840   -8.5170   -1.8750 C   0  0  0  0  0  0  0  0  0  0  0  0
   16.7420   -7.2970   -2.6630 C   0  0  0  0  0  0  0  0  0  0  0  0
   17.1370   -7.5660   -4.1150 C   0  0  0  0  0  0  0  0  0  0  0  0
   17.8730   -8.8940   -4.1160 C   0  0  0  0  0  0  0  0  0  0  0  0
   22.8030   -8.4070   -1.9460 C   0  0  0  0  0  0  0  0  0  0  0  0
   24.0470   -9.0910   -1.3790 C   0  0  0  0  0  0  0  0  0  0  0  0
   25.2620   -8.4660   -1.1640 N   0  0  0  0  0  0  0  0  0  0  0  0
   26.0260   -9.4380   -0.6610 C   0  0  0  0  0  0  0  0  0  0  0  0
   27.3620   -9.4350   -0.2670 N   0  0  0  0  0  0  0  0  0  0  0  0
   27.9390  -10.5190    0.1610 C   0  0  0  0  0  0  0  0  0  0  0  0
   29.3990  -10.5280    0.5920 C   0  0  0  0  0  0  0  0  0  0  0  0
   27.2160  -11.8090    0.2180 C   0  0  0  0  0  0  0  0  0  0  0  0
   25.9450  -11.7990   -0.1640 C   0  0  0  0  0  0  0  0  0  0  0  0
   25.1250  -13.0540   -0.1700 C   0  0  0  0  0  0  0  0  0  0  0  0
   25.3170  -10.5990   -0.6060 N   0  0  0  0  0  0  0  0  0  0  0  0
   24.0760  -10.4100   -1.1070 N   0  0  0  0  0  0  0  0  0  0  0  0
   17.8080  -11.3190   -1.9820 C   0  0  0  0  0  0  0  0  0  0  0  0
   18.1810  -12.2930   -0.8740 C   0  0  0  0  0  0  0  0  0  0  0  0
   18.7270  -15.5100   -2.7020 C   0  0  0  0  0  0  0  0  0  0  0  0
   20.0090  -15.8370   -2.3810 N   0  0  0  0  0  0  0  0  0  0  0  0
   20.6790  -15.0020   -1.5670 C   0  0  0  0  0  0  0  0  0  0  0  0
   20.1220  -13.8440   -1.0730 C   0  0  0  0  0  0  0  0  0  0  0  0
   18.8060  -13.5220   -1.4060 C   0  0  0  0  0  0  0  0  0  0  0  0
   18.1020  -14.3700   -2.2470 C   0  0  0  0  0  0  0  0  0  0  0  0
   16.4750  -16.1290   -3.6120 C   0  0  0  0  0  0  0  0  0  0  0  0
   17.9590  -16.4350   -3.6000 C   0  0  0  0  0  0  0  0  0  0  0  0
   22.0970  -15.3620   -1.1990 C   0  0  0  0  0  0  0  0  0  0  0  0
   22.9730  -15.5070   -2.4260 C   0  0  0  0  0  0  0  0  0  0  0  0
  1 26  1  1  0  0  0
  1  2  1  0  0  0  0
  2  3  1  0  0  0  0
  3  4  2  0  0  0  0
  5 14  1  6  0  0  0
  5  3  1  0  0  0  0
  6  8  1  0  0  0  0
  6  5  1  0  0  0  0
  7  6  2  0  0  0  0
  8  1  1  0  0  0  0
  9  1  1  0  0  0  0
  9 10  1  0  0  0  0
 11 10  1  0  0  0  0
 12 11  1  0  0  0  0
 13 12  1  0  0  0  0
 13  9  1  0  0  0  0
 14 15  1  0  0  0  0
 15 16  2  0  0  0  0
 15 25  2  0  0  0  0
 16 17  2  0  0  0  0
 17 24  1  0  0  0  0
 17 18  2  0  0  0  0
 18 19  2  0  0  0  0
 19 21  1  0  0  0  0
 19 20  1  0  0  0  0
 22 21  2  0  0  0  0
 23 22  1  0  0  0  0
 24 22  1  0  0  0  0
 25 24  1  0  0  0  0
 26 27  1  0  0  0  0
 28 29  2  0  0  0  0
 28 33  1  0  0  0  0
 29 30  2  0  0  0  0
 30 36  1  0  0  0  0
 30 31  1  0  0  0  0
 32 31  2  0  0  0  0
 32 27  1  0  0  0  0
 33 32  1  0  0  0  0
 34 35  1  0  0  0  0
 35 28  1  0  0  0  0
 37 36  1  0  0  0  0
M  END
>  <minimizedAffinity>
-8.52065372

$$$$

 OpenBabel12271915493D

 37 41  0  0  1  0  0  0  0  0999 V2000
   23.8570   -9.4000   -1.5990 C   0  0  2  0  0  0  0  0  0  0  0  0
   22.8320   -8.7860   -0.8130 O   0  0  0  0  0  0  0  0  0  0  0  0
   21.5600   -9.1280   -1.0070 C   0  0  0  0  0  0  0  0  0  0  0  0
   20.7750   -8.9880   -0.0780 O   0  0  0  0  0  0  0  0  0  0  0  0
   21.1880   -9.6590   -2.3230 C   0  0  1  0  0  0  0  0  0  0  0  0
   22.0750   -9.8150   -3.3790 C   0  0  0  0  0  0  0  0  0  0  0  0
   21.9560  -10.2710   -4.5040 O   0  0  0  0  0  0  0  0  0  0  0  0
   23.5250   -9.3630   -3.0870 C   0  0  0  0  0  0  0  0  0  0  0  0
   23.9530  -10.8530   -1.1290 C   0  0  0  0  0  0  0  0  0  0  0  0
   24.5420  -11.0450    0.2630 C   0  0  0  0  0  0  0  0  0  0  0  0
   24.6540  -12.5570    0.3450 C   0  0  0  0  0  0  0  0  0  0  0  0
   24.8620  -13.0440   -1.0890 C   0  0  0  0  0  0  0  0  0  0  0  0
   24.7780  -11.8110   -1.9730 C   0  0  0  0  0  0  0  0  0  0  0  0
   19.6960  -10.0410   -2.4150 C   0  0  0  0  0  0  0  0  0  0  0  0
   19.3920  -11.5230   -2.6390 C   0  0  0  0  0  0  0  0  0  0  0  0
   18.2920  -12.0090   -3.3200 N   0  0  0  0  0  0  0  0  0  0  0  0
   18.4540  -13.3330   -3.2690 C   0  0  0  0  0  0  0  0  0  0  0  0
   17.6580  -14.3670   -3.7540 N   0  0  0  0  0  0  0  0  0  0  0  0
   17.9790  -15.6120   -3.5550 C   0  0  0  0  0  0  0  0  0  0  0  0
   17.1160  -16.7520   -4.0800 C   0  0  0  0  0  0  0  0  0  0  0  0
   19.1810  -15.9860   -2.7770 C   0  0  0  0  0  0  0  0  0  0  0  0
   19.9280  -14.9910   -2.3150 C   0  0  0  0  0  0  0  0  0  0  0  0
   21.1540  -15.2540   -1.4930 C   0  0  0  0  0  0  0  0  0  0  0  0
   19.5790  -13.6310   -2.5630 N   0  0  0  0  0  0  0  0  0  0  0  0
   20.1600  -12.4980   -2.1110 N   0  0  0  0  0  0  0  0  0  0  0  0
   25.1930   -8.6880   -1.2360 C   0  0  0  0  0  0  0  0  0  0  0  0
   25.9920   -8.4000   -2.5000 C   0  0  0  0  0  0  0  0  0  0  0  0
   29.1220  -10.0320   -1.2640 C   0  0  0  0  0  0  0  0  0  0  0  0
   30.0640   -9.6120   -2.1530 N   0  0  0  0  0  0  0  0  0  0  0  0
   29.6640   -8.7960   -3.1450 C   0  0  0  0  0  0  0  0  0  0  0  0
   28.3550   -8.3960   -3.2920 C   0  0  0  0  0  0  0  0  0  0  0  0
   27.4000   -8.8300   -2.3730 C   0  0  0  0  0  0  0  0  0  0  0  0
   27.7940   -9.6750   -1.3460 C   0  0  0  0  0  0  0  0  0  0  0  0
   28.3750  -11.5510    0.5840 C   0  0  0  0  0  0  0  0  0  0  0  0
   29.5510  -10.9330   -0.1440 C   0  0  0  0  0  0  0  0  0  0  0  0
   30.7040   -8.3180   -4.1290 C   0  0  0  0  0  0  0  0  0  0  0  0
   30.1700   -7.2090   -5.0110 C   0  0  0  0  0  0  0  0  0  0  0  0
  1 26  1  1  0  0  0
  1  9  1  0  0  0  0
  1  2  1  0  0  0  0
  3  2  1  0  0  0  0
  3  4  2  0  0  0  0
  5 14  1  1  0  0  0
  5  3  1  0  0  0  0
  6  8  1  0  0  0  0
  6  5  1  0  0  0  0
  7  6  2  0  0  0  0
  8  1  1  0  0  0  0
  9 10  1  0  0  0  0
 10 11  1  0  0  0  0
 12 11  1  0  0  0  0
 13  9  1  0  0  0  0
 13 12  1  0  0  0  0
 15 14  1  0  0  0  0
 15 25  2  0  0  0  0
 16 17  2  0  0  0  0
 16 15  2  0  0  0  0
 17 24  1  0  0  0  0
 18 19  2  0  0  0  0
 18 17  2  0  0  0  0
 19 21  1  0  0  0  0
 20 19  1  0  0  0  0
 21 22  2  0  0  0  0
 22 23  1  0  0  0  0
 24 22  1  0  0  0  0
 24 25  1  0  0  0  0
 27 32  1  0  0  0  0
 27 26  1  0  0  0  0
 28 35  1  0  0  0  0
 29 28  2  0  0  0  0
 30 29  2  0  0  0  0
 31 30  1  0  0  0  0
 31 32  2  0  0  0  0
 32 33  1  0  0  0  0
 33 28  1  0  0  0  0
 35 34  1  0  0  0  0
 36 30  1  0  0  0  0
 37 36  1  0  0  0  0
M  END
>  <minimizedAffinity>
-8.29843903

$$$$

 OpenBabel12271915493D

 37 41  0  0  1  0  0  0  0  0999 V2000
   23.7890   -9.3510   -1.6200 C   0  0  2  0  0  0  0  0  0  0  0  0
   22.7600   -8.7430   -0.8340 O   0  0  0  0  0  0  0  0  0  0  0  0
   21.4900   -9.1000   -1.0220 C   0  0  0  0  0  0  0  0  0  0  0  0
   20.7070   -8.9630   -0.0910 O   0  0  0  0  0  0  0  0  0  0  0  0
   21.1200   -9.6440   -2.3340 C   0  0  1  0  0  0  0  0  0  0  0  0
   22.0060   -9.7970   -3.3920 C   0  0  0  0  0  0  0  0  0  0  0  0
   21.8880  -10.2610   -4.5130 O   0  0  0  0  0  0  0  0  0  0  0  0
   23.4510   -9.3270   -3.1070 C   0  0  0  0  0  0  0  0  0  0  0  0
   23.9030  -10.7990   -1.1420 C   0  0  0  0  0  0  0  0  0  0  0  0
   24.4720  -10.9750    0.2610 C   0  0  0  0  0  0  0  0  0  0  0  0
   24.6090  -12.4840    0.3530 C   0  0  0  0  0  0  0  0  0  0  0  0
   24.8490  -12.9740   -1.0760 C   0  0  0  0  0  0  0  0  0  0  0  0
   24.7580  -11.7470   -1.9670 C   0  0  0  0  0  0  0  0  0  0  0  0
   19.6330  -10.0430   -2.4180 C   0  0  0  0  0  0  0  0  0  0  0  0
   19.3450  -11.5270   -2.6520 C   0  0  0  0  0  0  0  0  0  0  0  0
   18.2380  -12.0200   -3.3170 N   0  0  0  0  0  0  0  0  0  0  0  0
   18.4190  -13.3420   -3.2830 C   0  0  0  0  0  0  0  0  0  0  0  0
   17.6290  -14.3830   -3.7640 N   0  0  0  0  0  0  0  0  0  0  0  0
   17.9710  -15.6250   -3.5850 C   0  0  0  0  0  0  0  0  0  0  0  0
   17.1130  -16.7710   -4.1050 C   0  0  0  0  0  0  0  0  0  0  0  0
   19.1930  -15.9900   -2.8340 C   0  0  0  0  0  0  0  0  0  0  0  0
   19.9340  -14.9900   -2.3770 C   0  0  0  0  0  0  0  0  0  0  0  0
   21.1800  -15.2450   -1.5820 C   0  0  0  0  0  0  0  0  0  0  0  0
   19.5630  -13.6330   -2.6030 N   0  0  0  0  0  0  0  0  0  0  0  0
   20.1360  -12.4960   -2.1500 N   0  0  0  0  0  0  0  0  0  0  0  0
   25.1180   -8.6210   -1.2670 C   0  0  0  0  0  0  0  0  0  0  0  0
   25.9210   -8.3540   -2.5320 C   0  0  0  0  0  0  0  0  0  0  0  0
   29.5830   -8.8100   -3.1390 C   0  0  0  0  0  0  0  0  0  0  0  0
   29.9710   -9.6100   -2.1080 N   0  0  0  0  0  0  0  0  0  0  0  0
   29.0300   -9.9930   -1.2280 C   0  0  0  0  0  0  0  0  0  0  0  0
   27.7160   -9.5950   -1.3300 C   0  0  0  0  0  0  0  0  0  0  0  0
   27.3290   -8.7800   -2.3930 C   0  0  0  0  0  0  0  0  0  0  0  0
   28.2880   -8.3720   -3.3080 C   0  0  0  0  0  0  0  0  0  0  0  0
   30.4690   -6.9270   -4.5360 C   0  0  0  0  0  0  0  0  0  0  0  0
   30.6170   -8.3810   -4.1380 C   0  0  0  0  0  0  0  0  0  0  0  0
   29.4520  -10.8870   -0.0880 C   0  0  0  0  0  0  0  0  0  0  0  0
   28.2610  -11.5590    0.5650 C   0  0  0  0  0  0  0  0  0  0  0  0
  1 26  1  1  0  0  0
  1  9  1  0  0  0  0
  1  2  1  0  0  0  0
  3  2  1  0  0  0  0
  3  4  2  0  0  0  0
  5 14  1  1  0  0  0
  5  3  1  0  0  0  0
  6  8  1  0  0  0  0
  6  5  1  0  0  0  0
  7  6  2  0  0  0  0
  8  1  1  0  0  0  0
  9 10  1  0  0  0  0
 10 11  1  0  0  0  0
 12 11  1  0  0  0  0
 13  9  1  0  0  0  0
 13 12  1  0  0  0  0
 15 14  1  0  0  0  0
 15 25  2  0  0  0  0
 16 17  2  0  0  0  0
 16 15  2  0  0  0  0
 17 24  1  0  0  0  0
 18 19  2  0  0  0  0
 18 17  2  0  0  0  0
 19 21  1  0  0  0  0
 20 19  1  0  0  0  0
 21 22  2  0  0  0  0
 22 23  1  0  0  0  0
 24 22  1  0  0  0  0
 24 25  1  0  0  0  0
 27 32  1  0  0  0  0
 27 26  1  0  0  0  0
 28 29  2  0  0  0  0
 29 30  2  0  0  0  0
 30 36  1  0  0  0  0
 31 30  1  0  0  0  0
 32 31  2  0  0  0  0
 33 28  1  0  0  0  0
 33 32  1  0  0  0  0
 34 35  1  0  0  0  0
 35 28  1  0  0  0  0
 36 37  1  0  0  0  0
M  END
>  <minimizedAffinity>
-8.26629066

$$$$

 OpenBabel12271915493D

 37 41  0  0  1  0  0  0  0  0999 V2000
   23.9450  -11.3620   -1.3740 C   0  0  2  0  0  0  0  0  0  0  0  0
   25.1330  -10.9480   -0.6940 O   0  0  0  0  0  0  0  0  0  0  0  0
   25.9640  -10.0900   -1.2840 C   0  0  0  0  0  0  0  0  0  0  0  0
   26.6790   -9.3960   -0.5730 O   0  0  0  0  0  0  0  0  0  0  0  0
   25.9570  -10.0290   -2.7500 C   0  0  1  0  0  0  0  0  0  0  0  0
   25.1490  -10.8170   -3.5580 C   0  0  0  0  0  0  0  0  0  0  0  0
   24.9820  -10.8710   -4.7650 O   0  0  0  0  0  0  0  0  0  0  0  0
   24.2400  -11.8130   -2.8010 C   0  0  0  0  0  0  0  0  0  0  0  0
   23.0140  -10.1490   -1.4000 C   0  0  0  0  0  0  0  0  0  0  0  0
   22.3190   -9.8380   -0.0790 C   0  0  0  0  0  0  0  0  0  0  0  0
   21.3700   -8.7240   -0.4840 C   0  0  0  0  0  0  0  0  0  0  0  0
   21.0300   -8.9720   -1.9540 C   0  0  0  0  0  0  0  0  0  0  0  0
   21.8570  -10.1710   -2.3850 C   0  0  0  0  0  0  0  0  0  0  0  0
   26.9410   -8.9820   -3.3100 C   0  0  0  0  0  0  0  0  0  0  0  0
   26.3220   -7.8370   -4.1130 C   0  0  0  0  0  0  0  0  0  0  0  0
   26.7120   -7.4660   -5.3870 N   0  0  0  0  0  0  0  0  0  0  0  0
   25.8990   -6.4480   -5.6760 C   0  0  0  0  0  0  0  0  0  0  0  0
   25.8200   -5.6370   -6.8060 N   0  0  0  0  0  0  0  0  0  0  0  0
   24.9720   -4.6540   -6.8700 C   0  0  0  0  0  0  0  0  0  0  0  0
   24.8780   -3.7610   -8.1000 C   0  0  0  0  0  0  0  0  0  0  0  0
   24.0770   -4.3290   -5.7360 C   0  0  0  0  0  0  0  0  0  0  0  0
   24.1660   -5.1060   -4.6640 C   0  0  0  0  0  0  0  0  0  0  0  0
   23.3250   -4.8520   -3.4490 C   0  0  0  0  0  0  0  0  0  0  0  0
   25.0810   -6.1970   -4.6170 N   0  0  0  0  0  0  0  0  0  0  0  0
   25.3710   -7.0340   -3.5970 N   0  0  0  0  0  0  0  0  0  0  0  0
   23.2800  -12.4600   -0.4940 C   0  0  0  0  0  0  0  0  0  0  0  0
   22.9620  -13.6860   -1.3390 C   0  0  0  0  0  0  0  0  0  0  0  0
   19.2570  -13.3210   -0.9810 C   0  0  0  0  0  0  0  0  0  0  0  0
   18.7700  -14.3360   -1.7470 N   0  0  0  0  0  0  0  0  0  0  0  0
   19.6590  -15.1290   -2.3680 C   0  0  0  0  0  0  0  0  0  0  0  0
   21.0180  -14.9400   -2.2670 C   0  0  0  0  0  0  0  0  0  0  0  0
   21.5060  -13.8990   -1.4770 C   0  0  0  0  0  0  0  0  0  0  0  0
   20.6030  -13.0680   -0.8320 C   0  0  0  0  0  0  0  0  0  0  0  0
   18.1440  -11.0760   -0.9330 C   0  0  0  0  0  0  0  0  0  0  0  0
   18.2800  -12.4310   -0.2700 C   0  0  0  0  0  0  0  0  0  0  0  0
   19.1260  -16.2620   -3.2110 C   0  0  0  0  0  0  0  0  0  0  0  0
   17.6730  -16.0460   -3.5840 C   0  0  0  0  0  0  0  0  0  0  0  0
  1  2  1  0  0  0  0
  1 26  1  1  0  0  0
  3  2  1  0  0  0  0
  3  4  2  0  0  0  0
  5 14  1  1  0  0  0
  5  3  1  0  0  0  0
  6  8  1  0  0  0  0
  6  5  1  0  0  0  0
  7  6  2  0  0  0  0
  8  1  1  0  0  0  0
  9  1  1  0  0  0  0
  9 10  1  0  0  0  0
 11 10  1  0  0  0  0
 12 11  1  0  0  0  0
 13 12  1  0  0  0  0
 13  9  1  0  0  0  0
 15 25  2  0  0  0  0
 15 14  1  0  0  0  0
 16 15  2  0  0  0  0
 17 16  2  0  0  0  0
 17 24  1  0  0  0  0
 18 17  2  0  0  0  0
 19 18  2  0  0  0  0
 19 21  1  0  0  0  0
 20 19  1  0  0  0  0
 21 22  2  0  0  0  0
 22 24  1  0  0  0  0
 22 23  1  0  0  0  0
 24 25  1  0  0  0  0
 27 26  1  0  0  0  0
 28 33  1  0  0  0  0
 28 35  1  0  0  0  0
 29 28  2  0  0  0  0
 30 31  1  0  0  0  0
 30 29  2  0  0  0  0
 31 32  2  0  0  0  0
 32 27  1  0  0  0  0
 32 33  1  0  0  0  0
 34 35  1  0  0  0  0
 36 30  1  0  0  0  0
 37 36  1  0  0  0  0
M  END
>  <minimizedAffinity>
-8.17077065

$$$$

 OpenBabel12271915493D

 37 41  0  0  1  0  0  0  0  0999 V2000
   23.5460  -10.7860   -2.9320 C   0  0  2  0  0  0  0  0  0  0  0  0
   24.4250  -11.0180   -4.0360 O   0  0  0  0  0  0  0  0  0  0  0  0
   25.6890  -10.6020   -3.9700 C   0  0  0  0  0  0  0  0  0  0  0  0
   26.5250  -11.1830   -4.6490 O   0  0  0  0  0  0  0  0  0  0  0  0
   25.9930   -9.4790   -3.0750 C   0  0  1  0  0  0  0  0  0  0  0  0
   25.0460   -8.8180   -2.3060 C   0  0  0  0  0  0  0  0  0  0  0  0
   25.1220   -7.9130   -1.4920 O   0  0  0  0  0  0  0  0  0  0  0  0
   23.5970   -9.3350   -2.4650 C   0  0  0  0  0  0  0  0  0  0  0  0
   24.0130  -11.7060   -1.8040 C   0  0  0  0  0  0  0  0  0  0  0  0
   23.5980  -13.1660   -1.9450 C   0  0  0  0  0  0  0  0  0  0  0  0
   24.0560  -13.7480   -0.6200 C   0  0  0  0  0  0  0  0  0  0  0  0
   23.9790  -12.6040    0.3920 C   0  0  0  0  0  0  0  0  0  0  0  0
   23.5630  -11.3710   -0.3910 C   0  0  0  0  0  0  0  0  0  0  0  0
   27.4910   -9.1100   -3.0670 C   0  0  0  0  0  0  0  0  0  0  0  0
   28.3420   -9.7700   -1.9820 C   0  0  0  0  0  0  0  0  0  0  0  0
   27.8390  -10.4960   -0.9180 N   0  0  0  0  0  0  0  0  0  0  0  0
   28.9350  -10.8770   -0.2560 C   0  0  0  0  0  0  0  0  0  0  0  0
   29.0810  -11.6110    0.9180 N   0  0  0  0  0  0  0  0  0  0  0  0
   30.2560  -11.8370    1.4270 C   0  0  0  0  0  0  0  0  0  0  0  0
   30.4280  -12.6380    2.7110 C   0  0  0  0  0  0  0  0  0  0  0  0
   31.4860  -11.2980    0.8040 C   0  0  0  0  0  0  0  0  0  0  0  0
   31.3320  -10.5960   -0.3110 C   0  0  0  0  0  0  0  0  0  0  0  0
   32.5070   -9.9820   -1.0120 C   0  0  0  0  0  0  0  0  0  0  0  0
   30.0410  -10.3780   -0.8730 N   0  0  0  0  0  0  0  0  0  0  0  0
   29.6820   -9.6290   -1.9400 N   0  0  0  0  0  0  0  0  0  0  0  0
   22.1290  -11.2520   -3.3780 C   0  0  0  0  0  0  0  0  0  0  0  0
   21.0960  -10.1880   -3.0330 C   0  0  0  0  0  0  0  0  0  0  0  0
   18.0430  -10.4370   -0.8860 C   0  0  0  0  0  0  0  0  0  0  0  0
   18.0750  -11.7260   -0.4500 N   0  0  0  0  0  0  0  0  0  0  0  0
   19.0960  -12.4980   -0.8600 C   0  0  0  0  0  0  0  0  0  0  0  0
   20.0810  -12.0350   -1.7040 C   0  0  0  0  0  0  0  0  0  0  0  0
   20.0400  -10.7110   -2.1410 C   0  0  0  0  0  0  0  0  0  0  0  0
   18.9920   -9.9020   -1.7300 C   0  0  0  0  0  0  0  0  0  0  0  0
   15.9760   -9.1890   -1.5570 C   0  0  0  0  0  0  0  0  0  0  0  0
   16.9180   -9.5560   -0.4290 C   0  0  0  0  0  0  0  0  0  0  0  0
   19.1430  -13.9250   -0.3730 C   0  0  0  0  0  0  0  0  0  0  0  0
   20.4530  -14.2370    0.3200 C   0  0  0  0  0  0  0  0  0  0  0  0
  1 26  1  6  0  0  0
  1  8  1  0  0  0  0
  1  9  1  0  0  0  0
  2  3  1  0  0  0  0
  2  1  1  0  0  0  0
  3  5  1  0  0  0  0
  4  3  2  0  0  0  0
  5 14  1  1  0  0  0
  5  6  1  0  0  0  0
  6  7  2  0  0  0  0
  8  6  1  0  0  0  0
  9 13  1  0  0  0  0
 10  9  1  0  0  0  0
 10 11  1  0  0  0  0
 11 12  1  0  0  0  0
 13 12  1  0  0  0  0
 14 15  1  0  0  0  0
 15 25  2  0  0  0  0
 15 16  2  0  0  0  0
 16 17  2  0  0  0  0
 17 18  2  0  0  0  0
 18 19  2  0  0  0  0
 19 20  1  0  0  0  0
 21 19  1  0  0  0  0
 22 21  2  0  0  0  0
 23 22  1  0  0  0  0
 24 22  1  0  0  0  0
 24 17  1  0  0  0  0
 25 24  1  0  0  0  0
 26 27  1  0  0  0  0
 27 32  1  0  0  0  0
 28 29  2  0  0  0  0
 28 35  1  0  0  0  0
 30 29  2  0  0  0  0
 30 36  1  0  0  0  0
 31 30  1  0  0  0  0
 32 33  1  0  0  0  0
 32 31  2  0  0  0  0
 33 28  1  0  0  0  0
 34 35  1  0  0  0  0
 36 37  1  0  0  0  0
M  END
>  <minimizedAffinity>
-8.10558319

$$$$

 OpenBabel12271915493D

 37 41  0  0  1  0  0  0  0  0999 V2000
   21.9780  -12.0430   -1.3360 C   0  0  2  0  0  0  0  0  0  0  0  0
   22.5790  -11.5000   -0.1570 O   0  0  0  0  0  0  0  0  0  0  0  0
   23.6010  -10.6530   -0.2690 C   0  0  0  0  0  0  0  0  0  0  0  0
   23.7940   -9.8570    0.6400 O   0  0  0  0  0  0  0  0  0  0  0  0
   24.4210  -10.7280   -1.4840 C   0  0  1  0  0  0  0  0  0  0  0  0
   24.2050  -11.6330   -2.5140 C   0  0  0  0  0  0  0  0  0  0  0  0
   24.7460  -11.8070   -3.5930 O   0  0  0  0  0  0  0  0  0  0  0  0
   23.0230  -12.6050   -2.2940 C   0  0  0  0  0  0  0  0  0  0  0  0
   21.2280  -10.8930   -2.0100 C   0  0  0  0  0  0  0  0  0  0  0  0
   19.9870  -10.4080   -1.2710 C   0  0  0  0  0  0  0  0  0  0  0  0
   19.4030   -9.4180   -2.2630 C   0  0  0  0  0  0  0  0  0  0  0  0
   19.8200   -9.9120   -3.6480 C   0  0  0  0  0  0  0  0  0  0  0  0
   20.7050  -11.1250   -3.4190 C   0  0  0  0  0  0  0  0  0  0  0  0
   25.5540   -9.6820   -1.5060 C   0  0  0  0  0  0  0  0  0  0  0  0
   26.8990  -10.1330   -0.9360 C   0  0  0  0  0  0  0  0  0  0  0  0
   27.0530  -10.9830    0.1430 N   0  0  0  0  0  0  0  0  0  0  0  0
   28.3770  -11.0930    0.2660 C   0  0  0  0  0  0  0  0  0  0  0  0
   29.1520  -11.7930    1.1870 N   0  0  0  0  0  0  0  0  0  0  0  0
   30.4510  -11.7310    1.1580 C   0  0  0  0  0  0  0  0  0  0  0  0
   31.3080  -12.4900    2.1620 C   0  0  0  0  0  0  0  0  0  0  0  0
   31.1630  -10.8890    0.1710 C   0  0  0  0  0  0  0  0  0  0  0  0
   30.4130  -10.2240   -0.6980 C   0  0  0  0  0  0  0  0  0  0  0  0
   31.0290   -9.3220   -1.7260 C   0  0  0  0  0  0  0  0  0  0  0  0
   28.9920  -10.3220   -0.6730 N   0  0  0  0  0  0  0  0  0  0  0  0
   28.0700   -9.6640   -1.4100 N   0  0  0  0  0  0  0  0  0  0  0  0
   20.9290  -13.0920   -0.8660 C   0  0  0  0  0  0  0  0  0  0  0  0
   21.0000  -14.3330   -1.7460 C   0  0  0  0  0  0  0  0  0  0  0  0
   17.4590  -14.0630   -2.9200 C   0  0  0  0  0  0  0  0  0  0  0  0
   17.2590  -15.2380   -3.5780 N   0  0  0  0  0  0  0  0  0  0  0  0
   18.2850  -16.1060   -3.6280 C   0  0  0  0  0  0  0  0  0  0  0  0
   19.5090  -15.8390   -3.0570 C   0  0  0  0  0  0  0  0  0  0  0  0
   19.7000  -14.6340   -2.3810 C   0  0  0  0  0  0  0  0  0  0  0  0
   18.6540  -13.7260   -2.3240 C   0  0  0  0  0  0  0  0  0  0  0  0
   16.7930  -11.6710   -2.5830 C   0  0  0  0  0  0  0  0  0  0  0  0
   16.3220  -13.0870   -2.8430 C   0  0  0  0  0  0  0  0  0  0  0  0
   18.0690  -17.4140   -4.3490 C   0  0  0  0  0  0  0  0  0  0  0  0
   16.6110  -17.6230   -4.7020 C   0  0  0  0  0  0  0  0  0  0  0  0
  1 26  1  1  0  0  0
  1  2  1  0  0  0  0
  3  2  1  0  0  0  0
  3  4  2  0  0  0  0
  5 14  1  6  0  0  0
  5  3  1  0  0  0  0
  6  8  1  0  0  0  0
  6  5  1  0  0  0  0
  7  6  2  0  0  0  0
  8  1  1  0  0  0  0
  9  1  1  0  0  0  0
  9 10  1  0  0  0  0
 11 10  1  0  0  0  0
 12 13  1  0  0  0  0
 12 11  1  0  0  0  0
 13  9  1  0  0  0  0
 14 15  1  0  0  0  0
 15 16  2  0  0  0  0
 16 17  2  0  0  0  0
 17 18  2  0  0  0  0
 19 18  2  0  0  0  0
 19 20  1  0  0  0  0
 21 19  1  0  0  0  0
 22 24  1  0  0  0  0
 22 21  2  0  0  0  0
 23 22  1  0  0  0  0
 24 17  1  0  0  0  0
 25 15  2  0  0  0  0
 25 24  1  0  0  0  0
 27 26  1  0  0  0  0
 28 35  1  0  0  0  0
 28 33  1  0  0  0  0
 29 28  2  0  0  0  0
 30 29  2  0  0  0  0
 30 31  1  0  0  0  0
 31 32  2  0  0  0  0
 32 33  1  0  0  0  0
 32 27  1  0  0  0  0
 35 34  1  0  0  0  0
 36 30  1  0  0  0  0
 37 36  1  0  0  0  0
M  END
>  <minimizedAffinity>
-8.100564

$$$$

 OpenBabel12271915493D

 37 41  0  0  1  0  0  0  0  0999 V2000
   24.0120  -11.1480   -1.2640 C   0  0  2  0  0  0  0  0  0  0  0  0
   25.2030  -10.6800   -0.6260 O   0  0  0  0  0  0  0  0  0  0  0  0
   26.0210   -9.8570   -1.2800 C   0  0  0  0  0  0  0  0  0  0  0  0
   26.7370   -9.1110   -0.6250 O   0  0  0  0  0  0  0  0  0  0  0  0
   26.0000   -9.8960   -2.7470 C   0  0  1  0  0  0  0  0  0  0  0  0
   25.1910  -10.7430   -3.4920 C   0  0  0  0  0  0  0  0  0  0  0  0
   25.0130  -10.8790   -4.6900 O   0  0  0  0  0  0  0  0  0  0  0  0
   24.2970  -11.6920   -2.6600 C   0  0  0  0  0  0  0  0  0  0  0  0
   23.0710   -9.9460   -1.3620 C   0  0  0  0  0  0  0  0  0  0  0  0
   22.3370   -9.5920   -0.0740 C   0  0  0  0  0  0  0  0  0  0  0  0
   21.3900   -8.5040   -0.5480 C   0  0  0  0  0  0  0  0  0  0  0  0
   21.0920   -8.8130   -2.0160 C   0  0  0  0  0  0  0  0  0  0  0  0
   21.9420  -10.0190   -2.3770 C   0  0  0  0  0  0  0  0  0  0  0  0
   26.9700   -8.8810   -3.3860 C   0  0  0  0  0  0  0  0  0  0  0  0
   26.3280   -7.7410   -4.1770 C   0  0  0  0  0  0  0  0  0  0  0  0
   26.6910   -7.3660   -5.4570 N   0  0  0  0  0  0  0  0  0  0  0  0
   25.8660   -6.3540   -5.7300 C   0  0  0  0  0  0  0  0  0  0  0  0
   25.7600   -5.5430   -6.8580 N   0  0  0  0  0  0  0  0  0  0  0  0
   24.9030   -4.5660   -6.9060 C   0  0  0  0  0  0  0  0  0  0  0  0
   24.7790   -3.6730   -8.1330 C   0  0  0  0  0  0  0  0  0  0  0  0
   24.0280   -4.2480   -5.7550 C   0  0  0  0  0  0  0  0  0  0  0  0
   24.1420   -5.0240   -4.6850 C   0  0  0  0  0  0  0  0  0  0  0  0
   23.3230   -4.7780   -3.4540 C   0  0  0  0  0  0  0  0  0  0  0  0
   25.0660   -6.1090   -4.6560 N   0  0  0  0  0  0  0  0  0  0  0  0
   25.3810   -6.9440   -3.6420 N   0  0  0  0  0  0  0  0  0  0  0  0
   23.3650  -12.1890   -0.3050 C   0  0  0  0  0  0  0  0  0  0  0  0
   23.1130  -13.4960   -1.0450 C   0  0  0  0  0  0  0  0  0  0  0  0
   19.8930  -14.9390   -2.2850 C   0  0  0  0  0  0  0  0  0  0  0  0
   18.9550  -14.1160   -1.7420 N   0  0  0  0  0  0  0  0  0  0  0  0
   19.3860  -13.0970   -0.9780 C   0  0  0  0  0  0  0  0  0  0  0  0
   20.7210  -12.8770   -0.7240 C   0  0  0  0  0  0  0  0  0  0  0  0
   21.6740  -13.7230   -1.2900 C   0  0  0  0  0  0  0  0  0  0  0  0
   21.2460  -14.7820   -2.0770 C   0  0  0  0  0  0  0  0  0  0  0  0
   17.9310  -16.0700   -3.3570 C   0  0  0  0  0  0  0  0  0  0  0  0
   19.4320  -16.0750   -3.1500 C   0  0  0  0  0  0  0  0  0  0  0  0
   18.3510  -12.1760   -0.3800 C   0  0  0  0  0  0  0  0  0  0  0  0
   18.0870  -10.9790   -1.2700 C   0  0  0  0  0  0  0  0  0  0  0  0
  1  2  1  0  0  0  0
  1 26  1  1  0  0  0
  3  2  1  0  0  0  0
  3  4  2  0  0  0  0
  5 14  1  6  0  0  0
  5  3  1  0  0  0  0
  6  5  1  0  0  0  0
  6  8  1  0  0  0  0
  7  6  2  0  0  0  0
  8  1  1  0  0  0  0
  9  1  1  0  0  0  0
  9 10  1  0  0  0  0
 11 10  1  0  0  0  0
 12 11  1  0  0  0  0
 13 12  1  0  0  0  0
 13  9  1  0  0  0  0
 15 25  2  0  0  0  0
 15 14  1  0  0  0  0
 16 15  2  0  0  0  0
 17 16  2  0  0  0  0
 17 24  1  0  0  0  0
 18 17  2  0  0  0  0
 19 18  2  0  0  0  0
 19 21  1  0  0  0  0
 20 19  1  0  0  0  0
 21 22  2  0  0  0  0
 22 24  1  0  0  0  0
 22 23  1  0  0  0  0
 24 25  1  0  0  0  0
 27 26  1  0  0  0  0
 28 33  1  0  0  0  0
 28 29  2  0  0  0  0
 29 30  2  0  0  0  0
 30 31  1  0  0  0  0
 30 36  1  0  0  0  0
 32 27  1  0  0  0  0
 32 31  2  0  0  0  0
 33 32  1  0  0  0  0
 34 35  1  0  0  0  0
 35 28  1  0  0  0  0
 37 36  1  0  0  0  0
M  END
>  <minimizedAffinity>
-8.09403038

$$$$

 OpenBabel12271915493D

 37 41  0  0  1  0  0  0  0  0999 V2000
   21.7410  -12.1250   -1.1480 C   0  0  2  0  0  0  0  0  0  0  0  0
   22.2780  -11.5140    0.0290 O   0  0  0  0  0  0  0  0  0  0  0  0
   23.2510  -10.6120   -0.0850 C   0  0  0  0  0  0  0  0  0  0  0  0
   23.3740   -9.7790    0.8040 O   0  0  0  0  0  0  0  0  0  0  0  0
   24.1050  -10.6730   -1.2760 C   0  0  1  0  0  0  0  0  0  0  0  0
   23.9700  -11.6180   -2.2840 C   0  0  0  0  0  0  0  0  0  0  0  0
   24.5480  -11.7910   -3.3430 O   0  0  0  0  0  0  0  0  0  0  0  0
   22.8410  -12.6520   -2.0620 C   0  0  0  0  0  0  0  0  0  0  0  0
   20.9420  -11.0420   -1.8740 C   0  0  0  0  0  0  0  0  0  0  0  0
   19.5690  -10.7440   -1.2840 C   0  0  0  0  0  0  0  0  0  0  0  0
   18.9930   -9.7840   -2.3090 C   0  0  0  0  0  0  0  0  0  0  0  0
   19.6350  -10.1590   -3.6460 C   0  0  0  0  0  0  0  0  0  0  0  0
   20.6280  -11.2680   -3.3450 C   0  0  0  0  0  0  0  0  0  0  0  0
   25.1750   -9.5620   -1.3030 C   0  0  0  0  0  0  0  0  0  0  0  0
   26.5170   -9.9040   -0.6550 C   0  0  0  0  0  0  0  0  0  0  0  0
   26.8500  -11.1410   -0.1360 N   0  0  0  0  0  0  0  0  0  0  0  0
   28.0990  -10.9670    0.3030 C   0  0  0  0  0  0  0  0  0  0  0  0
   28.9670  -11.8430    0.9500 N   0  0  0  0  0  0  0  0  0  0  0  0
   30.1460  -11.4560    1.3400 C   0  0  0  0  0  0  0  0  0  0  0  0
   31.1030  -12.4040    2.0500 C   0  0  0  0  0  0  0  0  0  0  0  0
   30.6040  -10.0620    1.1470 C   0  0  0  0  0  0  0  0  0  0  0  0
   29.7660   -9.2360    0.5340 C   0  0  0  0  0  0  0  0  0  0  0  0
   30.1180   -7.7960    0.3090 C   0  0  0  0  0  0  0  0  0  0  0  0
   28.4880   -9.6810    0.0880 N   0  0  0  0  0  0  0  0  0  0  0  0
   27.4790   -8.9770   -0.4720 N   0  0  0  0  0  0  0  0  0  0  0  0
   20.7430  -13.2210   -0.6710 C   0  0  0  0  0  0  0  0  0  0  0  0
   20.8590  -14.4550   -1.5560 C   0  0  0  0  0  0  0  0  0  0  0  0
   18.2370  -16.1560   -3.6100 C   0  0  0  0  0  0  0  0  0  0  0  0
   17.2010  -15.2730   -3.5840 N   0  0  0  0  0  0  0  0  0  0  0  0
   17.3730  -14.1300   -2.8970 C   0  0  0  0  0  0  0  0  0  0  0  0
   18.5370  -13.8410   -2.2220 C   0  0  0  0  0  0  0  0  0  0  0  0
   19.5940  -14.7510   -2.2590 C   0  0  0  0  0  0  0  0  0  0  0  0
   19.4310  -15.9370   -2.9600 C   0  0  0  0  0  0  0  0  0  0  0  0
   16.6230  -17.6940   -4.7550 C   0  0  0  0  0  0  0  0  0  0  0  0
   18.0670  -17.4320   -4.3810 C   0  0  0  0  0  0  0  0  0  0  0  0
   16.2320  -13.1430   -2.8710 C   0  0  0  0  0  0  0  0  0  0  0  0
   15.0060  -13.6870   -3.5760 C   0  0  0  0  0  0  0  0  0  0  0  0
  1 26  1  1  0  0  0
  1  2  1  0  0  0  0
  3  2  1  0  0  0  0
  3  4  2  0  0  0  0
  5 14  1  6  0  0  0
  5  3  1  0  0  0  0
  6  8  1  0  0  0  0
  6  5  1  0  0  0  0
  7  6  2  0  0  0  0
  8  1  1  0  0  0  0
  9 10  1  0  0  0  0
  9  1  1  0  0  0  0
 11 10  1  0  0  0  0
 12 13  1  0  0  0  0
 12 11  1  0  0  0  0
 13  9  1  0  0  0  0
 14 15  1  0  0  0  0
 15 25  2  0  0  0  0
 15 16  2  0  0  0  0
 16 17  2  0  0  0  0
 17 18  2  0  0  0  0
 18 19  2  0  0  0  0
 19 20  1  0  0  0  0
 21 19  1  0  0  0  0
 22 21  2  0  0  0  0
 23 22  1  0  0  0  0
 24 17  1  0  0  0  0
 24 22  1  0  0  0  0
 25 24  1  0  0  0  0
 27 26  1  0  0  0  0
 28 29  2  0  0  0  0
 28 33  1  0  0  0  0
 29 30  2  0  0  0  0
 30 36  1  0  0  0  0
 30 31  1  0  0  0  0
 32 31  2  0  0  0  0
 32 27  1  0  0  0  0
 33 32  1  0  0  0  0
 34 35  1  0  0  0  0
 35 28  1  0  0  0  0
 37 36  1  0  0  0  0
M  END
>  <minimizedAffinity>
-8.04778671

$$$$
