
 OpenBabel12271915443D

 32 35  0  0  1  0  0  0  0  0999 V2000
   22.3900  -14.8920   -2.2480 C   0  0  1  0  0  0  0  0  0  0  0  0
   23.4230  -15.9310   -2.5100 N   0  0  0  0  0  0  0  0  0  0  0  0
   24.2030  -15.8710   -1.8370 H   0  0  0  0  0  0  0  0  0  0  0  0
   23.8060  -15.8640   -3.4630 H   0  0  0  0  0  0  0  0  0  0  0  0
   23.0250  -16.8740   -2.4270 H   0  0  0  0  0  0  0  0  0  0  0  0
   21.5200  -15.2500   -1.0340 C   0  0  0  0  0  0  0  0  0  0  0  0
   20.1200  -14.7450   -1.0890 C   0  0  0  0  0  0  0  0  0  0  0  0
   19.0850  -15.1600   -1.9570 C   0  0  0  0  0  0  0  0  0  0  0  0
   18.9810  -16.0900   -3.0010 C   0  0  0  0  0  0  0  0  0  0  0  0
   17.7660  -16.2440   -3.6830 C   0  0  0  0  0  0  0  0  0  0  0  0
   16.6690  -15.4780   -3.3520 C   0  0  0  0  0  0  0  0  0  0  0  0
   16.7510  -14.5380   -2.3250 C   0  0  0  0  0  0  0  0  0  0  0  0
   17.9660  -14.4090   -1.6470 C   0  0  0  0  0  0  0  0  0  0  0  0
   18.2900  -13.5460   -0.6250 N   0  0  0  0  0  0  0  0  0  0  0  0
   17.6870  -12.8600   -0.2120 H   0  0  0  0  0  0  0  0  0  0  0  0
   19.5990  -13.7600   -0.2860 C   0  0  0  0  0  0  0  0  0  0  0  0
   23.0300  -13.5040   -2.1380 C   0  0  0  0  0  0  0  0  0  0  0  0
   23.8870  -13.4950   -0.9930 O   0  0  0  0  0  0  0  0  0  0  0  0
   24.5760  -12.3680   -0.6870 C   0  0  0  0  0  0  0  0  0  0  0  0
   25.9280  -12.3320   -0.3760 C   0  0  0  0  0  0  0  0  0  0  0  0
   26.5430  -11.1050   -0.1160 C   0  0  0  0  0  0  0  0  0  0  0  0
   25.7580   -9.9650   -0.1690 C   0  0  0  0  0  0  0  0  0  0  0  0
   24.4380   -9.9740   -0.4470 N   0  0  0  0  0  0  0  0  0  0  0  0
   23.8760  -11.1720   -0.7040 C   0  0  0  0  0  0  0  0  0  0  0  0
   27.9690  -10.9830    0.1940 C   0  0  0  0  0  0  0  0  0  0  0  0
   28.7100  -11.9020    0.8350 C   0  0  0  0  0  0  0  0  0  0  0  0
   30.1380  -11.7890    1.1540 C   0  0  0  0  0  0  0  0  0  0  0  0
   30.6450  -12.5730    2.1960 C   0  0  0  0  0  0  0  0  0  0  0  0
   31.9820  -12.4790    2.5080 C   0  0  0  0  0  0  0  0  0  0  0  0
   32.8190  -11.6620    1.8510 N   0  0  0  0  0  0  0  0  0  0  0  0
   32.3220  -10.9120    0.8490 C   0  0  0  0  0  0  0  0  0  0  0  0
   31.0050  -10.9430    0.4730 C   0  0  0  0  0  0  0  0  0  0  0  0
  1 17  1  1  0  0  0
  1  6  1  0  0  0  0
  2  5  1  0  0  0  0
  2  1  1  0  0  0  0
  2  3  1  0  0  0  0
  4  2  1  0  0  0  0
  7  6  1  0  0  0  0
  7 16  2  0  0  0  0
  8 13  1  0  0  0  0
  8  7  1  0  0  0  0
  9  8  2  0  0  0  0
 10 11  2  0  0  0  0
 10  9  1  0  0  0  0
 11 12  1  0  0  0  0
 12 13  2  0  0  0  0
 13 14  1  0  0  0  0
 14 16  1  0  0  0  0
 14 15  1  0  0  0  0
 17 18  1  0  0  0  0
 18 19  1  0  0  0  0
 19 20  1  0  0  0  0
 20 21  2  0  0  0  0
 21 25  1  0  0  0  0
 22 21  1  0  0  0  0
 23 22  2  0  0  0  0
 24 19  2  0  0  0  0
 24 23  1  0  0  0  0
 25 26  2  0  0  0  0
 26 27  1  0  0  0  0
 27 28  2  0  0  0  0
 28 29  1  0  0  0  0
 30 29  2  0  0  0  0
 31 30  1  0  0  0  0
 32 31  2  0  0  0  0
 32 27  1  0  0  0  0
M  END
>  <minimizedAffinity>
-8.80034828

$$$$

 OpenBabel12271915443D

 32 35  0  0  1  0  0  0  0  0999 V2000
   22.9590   -9.2600   -0.8220 C   0  0  1  0  0  0  0  0  0  0  0  0
   24.0400   -8.3260   -0.4050 N   0  0  0  0  0  0  0  0  0  0  0  0
   24.8380   -8.3510   -1.0580 H   0  0  0  0  0  0  0  0  0  0  0  0
   24.3840   -8.5310    0.5430 H   0  0  0  0  0  0  0  0  0  0  0  0
   23.6990   -7.3570   -0.3830 H   0  0  0  0  0  0  0  0  0  0  0  0
   22.1550   -8.7060   -2.0060 C   0  0  0  0  0  0  0  0  0  0  0  0
   21.3080   -9.7040   -2.7180 C   0  0  0  0  0  0  0  0  0  0  0  0
   20.0980  -10.2830   -2.2750 C   0  0  0  0  0  0  0  0  0  0  0  0
   19.3130  -10.1750   -1.1190 C   0  0  0  0  0  0  0  0  0  0  0  0
   18.1370  -10.9290   -0.9970 C   0  0  0  0  0  0  0  0  0  0  0  0
   17.7460  -11.7930   -1.9980 C   0  0  0  0  0  0  0  0  0  0  0  0
   18.5160  -11.9260   -3.1520 C   0  0  0  0  0  0  0  0  0  0  0  0
   19.6770  -11.1560   -3.2610 C   0  0  0  0  0  0  0  0  0  0  0  0
   20.5970  -11.1320   -4.2850 N   0  0  0  0  0  0  0  0  0  0  0  0
   20.5710  -11.6860   -5.1210 H   0  0  0  0  0  0  0  0  0  0  0  0
   21.5830  -10.2430   -3.9510 C   0  0  0  0  0  0  0  0  0  0  0  0
   23.5220  -10.6610   -1.0830 C   0  0  0  0  0  0  0  0  0  0  0  0
   22.8640  -11.5790   -0.2040 O   0  0  0  0  0  0  0  0  0  0  0  0
   22.5800  -12.8310   -0.6420 C   0  0  0  0  0  0  0  0  0  0  0  0
   21.3150  -13.2700   -1.0060 C   0  0  0  0  0  0  0  0  0  0  0  0
   21.1480  -14.5720   -1.4810 C   0  0  0  0  0  0  0  0  0  0  0  0
   22.2690  -15.3820   -1.5540 C   0  0  0  0  0  0  0  0  0  0  0  0
   23.5060  -14.9890   -1.1860 N   0  0  0  0  0  0  0  0  0  0  0  0
   23.6370  -13.7230   -0.7410 C   0  0  0  0  0  0  0  0  0  0  0  0
   19.8510  -15.1000   -1.9090 C   0  0  0  0  0  0  0  0  0  0  0  0
   19.5390  -15.4860   -3.1580 C   0  0  0  0  0  0  0  0  0  0  0  0
   18.2420  -16.0130   -3.5990 C   0  0  0  0  0  0  0  0  0  0  0  0
   17.0910  -15.2840   -3.2830 C   0  0  0  0  0  0  0  0  0  0  0  0
   15.8670  -15.7640   -3.6890 C   0  0  0  0  0  0  0  0  0  0  0  0
   15.7360  -16.9080   -4.3780 N   0  0  0  0  0  0  0  0  0  0  0  0
   16.8500  -17.6030   -4.6780 C   0  0  0  0  0  0  0  0  0  0  0  0
   18.1070  -17.1980   -4.3130 C   0  0  0  0  0  0  0  0  0  0  0  0
  1  6  1  6  0  0  0
  1  2  1  0  0  0  0
  2  5  1  0  0  0  0
  2  4  1  0  0  0  0
  3  2  1  0  0  0  0
  7  8  1  0  0  0  0
  7  6  1  0  0  0  0
  8  9  2  0  0  0  0
  9 10  1  0  0  0  0
 11 10  2  0  0  0  0
 12 11  1  0  0  0  0
 13 12  2  0  0  0  0
 13  8  1  0  0  0  0
 14 16  1  0  0  0  0
 14 13  1  0  0  0  0
 15 14  1  0  0  0  0
 16  7  2  0  0  0  0
 17  1  1  0  0  0  0
 17 18  1  0  0  0  0
 19 18  1  0  0  0  0
 20 19  2  0  0  0  0
 21 20  1  0  0  0  0
 22 21  2  0  0  0  0
 22 23  1  0  0  0  0
 23 24  2  0  0  0  0
 24 19  1  0  0  0  0
 25 21  1  0  0  0  0
 26 25  2  0  0  0  0
 27 28  1  0  0  0  0
 27 26  1  0  0  0  0
 29 28  2  0  0  0  0
 30 29  1  0  0  0  0
 31 30  2  0  0  0  0
 31 32  1  0  0  0  0
 32 27  2  0  0  0  0
M  END
>  <minimizedAffinity>
-8.77739239

$$$$

 OpenBabel12271915443D

 32 35  0  0  1  0  0  0  0  0999 V2000
   16.2920  -13.7870   -2.6490 C   0  0  1  0  0  0  0  0  0  0  0  0
   15.1580  -13.7170   -3.6100 N   0  0  0  0  0  0  0  0  0  0  0  0
   15.4880  -13.6670   -4.5860 H   0  0  0  0  0  0  0  0  0  0  0  0
   14.5460  -12.9090   -3.4290 H   0  0  0  0  0  0  0  0  0  0  0  0
   14.5630  -14.5500   -3.5360 H   0  0  0  0  0  0  0  0  0  0  0  0
   16.9310  -15.1820   -2.6240 C   0  0  0  0  0  0  0  0  0  0  0  0
   18.4200  -15.1960   -2.6050 C   0  0  0  0  0  0  0  0  0  0  0  0
   19.2740  -14.8480   -1.5330 C   0  0  0  0  0  0  0  0  0  0  0  0
   19.0810  -14.3880   -0.2230 C   0  0  0  0  0  0  0  0  0  0  0  0
   20.1890  -14.1190    0.5950 C   0  0  0  0  0  0  0  0  0  0  0  0
   21.4730  -14.2860    0.1200 C   0  0  0  0  0  0  0  0  0  0  0  0
   21.6890  -14.7310   -1.1830 C   0  0  0  0  0  0  0  0  0  0  0  0
   20.5730  -15.0070   -1.9780 C   0  0  0  0  0  0  0  0  0  0  0  0
   20.5370  -15.4330   -3.2860 N   0  0  0  0  0  0  0  0  0  0  0  0
   21.3280  -15.6040   -3.8780 H   0  0  0  0  0  0  0  0  0  0  0  0
   19.2250  -15.5520   -3.6590 C   0  0  0  0  0  0  0  0  0  0  0  0
   17.3050  -12.6690   -2.9200 C   0  0  0  0  0  0  0  0  0  0  0  0
   17.2560  -11.7460   -1.8280 O   0  0  0  0  0  0  0  0  0  0  0  0
   18.2620  -10.8500   -1.6700 C   0  0  0  0  0  0  0  0  0  0  0  0
   19.6070  -11.1820   -1.5850 C   0  0  0  0  0  0  0  0  0  0  0  0
   20.5600  -10.1690   -1.4620 C   0  0  0  0  0  0  0  0  0  0  0  0
   20.1100   -8.8600   -1.4170 C   0  0  0  0  0  0  0  0  0  0  0  0
   18.8080   -8.5110   -1.4750 N   0  0  0  0  0  0  0  0  0  0  0  0
   17.9130   -9.5100   -1.6040 C   0  0  0  0  0  0  0  0  0  0  0  0
   21.9980  -10.4380   -1.3920 C   0  0  0  0  0  0  0  0  0  0  0  0
   22.6660  -10.8340   -0.2960 C   0  0  0  0  0  0  0  0  0  0  0  0
   24.1060  -11.1040   -0.2130 C   0  0  0  0  0  0  0  0  0  0  0  0
   24.5210  -12.4290   -0.0450 C   0  0  0  0  0  0  0  0  0  0  0  0
   25.8680  -12.6980    0.0350 C   0  0  0  0  0  0  0  0  0  0  0  0
   26.8000  -11.7370   -0.0420 N   0  0  0  0  0  0  0  0  0  0  0  0
   26.3910  -10.4640   -0.2030 C   0  0  0  0  0  0  0  0  0  0  0  0
   25.0710  -10.1070   -0.2930 C   0  0  0  0  0  0  0  0  0  0  0  0
  1 17  1  6  0  0  0
  1  6  1  0  0  0  0
  2  5  1  0  0  0  0
  2  4  1  0  0  0  0
  2  1  1  0  0  0  0
  3  2  1  0  0  0  0
  6  7  1  0  0  0  0
  7  8  1  0  0  0  0
  8  9  1  0  0  0  0
  9 10  2  0  0  0  0
 11 10  1  0  0  0  0
 12 11  2  0  0  0  0
 13  8  2  0  0  0  0
 13 12  1  0  0  0  0
 14 13  1  0  0  0  0
 15 14  1  0  0  0  0
 16 14  1  0  0  0  0
 16  7  2  0  0  0  0
 17 18  1  0  0  0  0
 18 19  1  0  0  0  0
 19 24  2  0  0  0  0
 19 20  1  0  0  0  0
 20 21  2  0  0  0  0
 21 22  1  0  0  0  0
 21 25  1  0  0  0  0
 23 22  2  0  0  0  0
 24 23  1  0  0  0  0
 25 26  2  0  0  0  0
 26 27  1  0  0  0  0
 27 28  1  0  0  0  0
 28 29  2  0  0  0  0
 30 29  1  0  0  0  0
 31 30  2  0  0  0  0
 32 27  2  0  0  0  0
 32 31  1  0  0  0  0
M  END
>  <minimizedAffinity>
-8.66769695

$$$$

 OpenBabel12271915443D

 32 35  0  0  1  0  0  0  0  0999 V2000
   24.4940  -10.1100   -0.6460 C   0  0  1  0  0  0  0  0  0  0  0  0
   25.6890   -9.3100   -0.2650 N   0  0  0  0  0  0  0  0  0  0  0  0
   25.4840   -8.6660    0.5150 H   0  0  0  0  0  0  0  0  0  0  0  0
   26.0570   -8.7610   -1.0550 H   0  0  0  0  0  0  0  0  0  0  0  0
   26.4570   -9.9190    0.0420 H   0  0  0  0  0  0  0  0  0  0  0  0
   24.2190  -11.2350    0.3610 C   0  0  0  0  0  0  0  0  0  0  0  0
   24.0130  -12.5830   -0.2380 C   0  0  0  0  0  0  0  0  0  0  0  0
   22.7890  -13.2530   -0.4600 C   0  0  0  0  0  0  0  0  0  0  0  0
   21.4400  -12.9560   -0.2170 C   0  0  0  0  0  0  0  0  0  0  0  0
   20.4460  -13.8840   -0.5620 C   0  0  0  0  0  0  0  0  0  0  0  0
   20.7790  -15.0980   -1.1250 C   0  0  0  0  0  0  0  0  0  0  0  0
   22.1130  -15.4190   -1.3660 C   0  0  0  0  0  0  0  0  0  0  0  0
   23.0890  -14.4760   -1.0290 C   0  0  0  0  0  0  0  0  0  0  0  0
   24.4560  -14.5760   -1.1520 N   0  0  0  0  0  0  0  0  0  0  0  0
   24.9660  -15.3650   -1.5030 H   0  0  0  0  0  0  0  0  0  0  0  0
   25.0120  -13.4190   -0.6750 C   0  0  0  0  0  0  0  0  0  0  0  0
   23.2820   -9.2010   -0.8760 C   0  0  0  0  0  0  0  0  0  0  0  0
   23.2910   -8.7800   -2.2430 O   0  0  0  0  0  0  0  0  0  0  0  0
   22.4480   -9.3710   -3.1260 C   0  0  0  0  0  0  0  0  0  0  0  0
   21.4850  -10.3110   -2.7870 C   0  0  0  0  0  0  0  0  0  0  0  0
   20.6440  -10.8230   -3.7780 C   0  0  0  0  0  0  0  0  0  0  0  0
   20.8240  -10.3720   -5.0750 C   0  0  0  0  0  0  0  0  0  0  0  0
   21.7670   -9.4770   -5.4350 N   0  0  0  0  0  0  0  0  0  0  0  0
   22.5550   -8.9920   -4.4560 C   0  0  0  0  0  0  0  0  0  0  0  0
   19.5880  -11.7970   -3.4950 C   0  0  0  0  0  0  0  0  0  0  0  0
   19.5320  -13.0500   -3.9770 C   0  0  0  0  0  0  0  0  0  0  0  0
   18.4780  -14.0340   -3.7040 C   0  0  0  0  0  0  0  0  0  0  0  0
   17.2490  -13.5680   -3.2260 C   0  0  0  0  0  0  0  0  0  0  0  0
   16.2500  -14.4770   -2.9640 C   0  0  0  0  0  0  0  0  0  0  0  0
   16.4100  -15.7960   -3.1500 N   0  0  0  0  0  0  0  0  0  0  0  0
   17.5970  -16.2350   -3.6110 C   0  0  0  0  0  0  0  0  0  0  0  0
   18.6440  -15.4000   -3.8980 C   0  0  0  0  0  0  0  0  0  0  0  0
  1 17  1  1  0  0  0
  1  2  1  0  0  0  0
  1  6  1  0  0  0  0
  2  5  1  0  0  0  0
  2  3  1  0  0  0  0
  4  2  1  0  0  0  0
  7  6  1  0  0  0  0
  8  7  1  0  0  0  0
  8  9  1  0  0  0  0
 10  9  2  0  0  0  0
 11 10  1  0  0  0  0
 12 11  2  0  0  0  0
 12 13  1  0  0  0  0
 13  8  2  0  0  0  0
 14 13  1  0  0  0  0
 14 16  1  0  0  0  0
 15 14  1  0  0  0  0
 16  7  2  0  0  0  0
 18 17  1  0  0  0  0
 19 20  1  0  0  0  0
 19 18  1  0  0  0  0
 21 25  1  0  0  0  0
 21 20  2  0  0  0  0
 22 21  1  0  0  0  0
 23 22  2  0  0  0  0
 23 24  1  0  0  0  0
 24 19  2  0  0  0  0
 26 27  1  0  0  0  0
 26 25  2  0  0  0  0
 27 28  1  0  0  0  0
 28 29  2  0  0  0  0
 30 29  1  0  0  0  0
 31 30  2  0  0  0  0
 32 27  2  0  0  0  0
 32 31  1  0  0  0  0
M  END
>  <minimizedAffinity>
-8.60670567

$$$$

 OpenBabel12271915443D

 32 35  0  0  1  0  0  0  0  0999 V2000
   20.4080  -14.8700   -1.0200 C   0  0  1  0  0  0  0  0  0  0  0  0
   20.3330  -14.5760    0.4370 N   0  0  0  0  0  0  0  0  0  0  0  0
   20.8690  -13.7290    0.6830 H   0  0  0  0  0  0  0  0  0  0  0  0
   20.6790  -15.3600    1.0080 H   0  0  0  0  0  0  0  0  0  0  0  0
   19.3630  -14.4140    0.7300 H   0  0  0  0  0  0  0  0  0  0  0  0
   19.5100  -13.9280   -1.8350 C   0  0  0  0  0  0  0  0  0  0  0  0
   18.1860  -14.4910   -2.2180 C   0  0  0  0  0  0  0  0  0  0  0  0
   17.9270  -15.6050   -3.0470 C   0  0  0  0  0  0  0  0  0  0  0  0
   18.7200  -16.5080   -3.7700 C   0  0  0  0  0  0  0  0  0  0  0  0
   18.1150  -17.5230   -4.5250 C   0  0  0  0  0  0  0  0  0  0  0  0
   16.7420  -17.6370   -4.5820 C   0  0  0  0  0  0  0  0  0  0  0  0
   15.9330  -16.7450   -3.8820 C   0  0  0  0  0  0  0  0  0  0  0  0
   16.5540  -15.7490   -3.1230 C   0  0  0  0  0  0  0  0  0  0  0  0
   15.9700  -14.7530   -2.3730 N   0  0  0  0  0  0  0  0  0  0  0  0
   14.9870  -14.5880   -2.2660 H   0  0  0  0  0  0  0  0  0  0  0  0
   16.9680  -13.9960   -1.8200 C   0  0  0  0  0  0  0  0  0  0  0  0
   21.8630  -14.8770   -1.5000 C   0  0  0  0  0  0  0  0  0  0  0  0
   22.1570  -13.5920   -2.0540 O   0  0  0  0  0  0  0  0  0  0  0  0
   22.8680  -12.6980   -1.3220 C   0  0  0  0  0  0  0  0  0  0  0  0
   24.2190  -12.8200   -1.0270 C   0  0  0  0  0  0  0  0  0  0  0  0
   24.8570  -11.8160   -0.2950 C   0  0  0  0  0  0  0  0  0  0  0  0
   24.0960  -10.7350    0.1190 C   0  0  0  0  0  0  0  0  0  0  0  0
   22.7780  -10.6030   -0.1340 N   0  0  0  0  0  0  0  0  0  0  0  0
   22.1920  -11.5830   -0.8510 C   0  0  0  0  0  0  0  0  0  0  0  0
   26.2830  -11.8590    0.0330 C   0  0  0  0  0  0  0  0  0  0  0  0
   27.1120  -10.8020    0.0530 C   0  0  0  0  0  0  0  0  0  0  0  0
   28.5430  -10.8330    0.3780 C   0  0  0  0  0  0  0  0  0  0  0  0
   29.3080   -9.6960    0.0980 C   0  0  0  0  0  0  0  0  0  0  0  0
   30.6510   -9.7090    0.3950 C   0  0  0  0  0  0  0  0  0  0  0  0
   31.2570  -10.7720    0.9440 N   0  0  0  0  0  0  0  0  0  0  0  0
   30.5120  -11.8620    1.2110 C   0  0  0  0  0  0  0  0  0  0  0  0
   29.1700  -11.9350    0.9470 C   0  0  0  0  0  0  0  0  0  0  0  0
  1  6  1  6  0  0  0
  1  2  1  0  0  0  0
  2  3  1  0  0  0  0
  2  5  1  0  0  0  0
  2  4  1  0  0  0  0
  7  6  1  0  0  0  0
  7 16  2  0  0  0  0
  8  7  1  0  0  0  0
  9  8  2  0  0  0  0
 10  9  1  0  0  0  0
 11 10  2  0  0  0  0
 11 12  1  0  0  0  0
 12 13  2  0  0  0  0
 13  8  1  0  0  0  0
 13 14  1  0  0  0  0
 14 15  1  0  0  0  0
 14 16  1  0  0  0  0
 17  1  1  0  0  0  0
 18 17  1  0  0  0  0
 18 19  1  0  0  0  0
 19 20  2  0  0  0  0
 19 24  1  0  0  0  0
 20 21  1  0  0  0  0
 21 25  1  0  0  0  0
 21 22  2  0  0  0  0
 23 22  1  0  0  0  0
 24 23  2  0  0  0  0
 25 26  2  0  0  0  0
 26 27  1  0  0  0  0
 27 32  1  0  0  0  0
 28 27  2  0  0  0  0
 28 29  1  0  0  0  0
 29 30  2  0  0  0  0
 30 31  1  0  0  0  0
 32 31  2  0  0  0  0
M  END
>  <minimizedAffinity>
-8.55028343

$$$$

 OpenBabel12271915443D

 32 35  0  0  1  0  0  0  0  0999 V2000
   24.6190   -9.9880   -0.8740 C   0  0  1  0  0  0  0  0  0  0  0  0
   25.8000  -10.4160   -0.0760 N   0  0  0  0  0  0  0  0  0  0  0  0
   25.8250  -11.4390    0.0490 H   0  0  0  0  0  0  0  0  0  0  0  0
   25.8220   -9.9710    0.8520 H   0  0  0  0  0  0  0  0  0  0  0  0
   26.6750  -10.1480   -0.5420 H   0  0  0  0  0  0  0  0  0  0  0  0
   24.8080  -10.2810   -2.3690 C   0  0  0  0  0  0  0  0  0  0  0  0
   23.9050   -9.5250   -3.2810 C   0  0  0  0  0  0  0  0  0  0  0  0
   22.6840   -9.9610   -3.8450 C   0  0  0  0  0  0  0  0  0  0  0  0
   21.9360  -11.1450   -3.7920 C   0  0  0  0  0  0  0  0  0  0  0  0
   20.7340  -11.2470   -4.5090 C   0  0  0  0  0  0  0  0  0  0  0  0
   20.2840  -10.1980   -5.2840 C   0  0  0  0  0  0  0  0  0  0  0  0
   21.0170   -9.0150   -5.3610 C   0  0  0  0  0  0  0  0  0  0  0  0
   22.2040   -8.9270   -4.6280 C   0  0  0  0  0  0  0  0  0  0  0  0
   23.0970   -7.8810   -4.5640 N   0  0  0  0  0  0  0  0  0  0  0  0
   23.0270   -7.0090   -5.0540 H   0  0  0  0  0  0  0  0  0  0  0  0
   24.1250   -8.2490   -3.7380 C   0  0  0  0  0  0  0  0  0  0  0  0
   23.3300  -10.5890   -0.3040 C   0  0  0  0  0  0  0  0  0  0  0  0
   23.6210  -11.9090    0.1650 O   0  0  0  0  0  0  0  0  0  0  0  0
   23.2170  -12.9780   -0.5660 C   0  0  0  0  0  0  0  0  0  0  0  0
   21.9310  -13.1560   -1.0560 C   0  0  0  0  0  0  0  0  0  0  0  0
   21.6390  -14.2790   -1.8330 C   0  0  0  0  0  0  0  0  0  0  0  0
   22.6610  -15.1850   -2.0700 C   0  0  0  0  0  0  0  0  0  0  0  0
   23.9130  -15.0470   -1.5870 N   0  0  0  0  0  0  0  0  0  0  0  0
   24.1670  -13.9470   -0.8500 C   0  0  0  0  0  0  0  0  0  0  0  0
   20.3140  -14.5240   -2.4060 C   0  0  0  0  0  0  0  0  0  0  0  0
   19.7690  -15.7330   -2.6240 C   0  0  0  0  0  0  0  0  0  0  0  0
   18.4450  -15.9910   -3.2010 C   0  0  0  0  0  0  0  0  0  0  0  0
   17.3930  -15.1420   -2.8440 C   0  0  0  0  0  0  0  0  0  0  0  0
   16.1440  -15.3700   -3.3750 C   0  0  0  0  0  0  0  0  0  0  0  0
   15.8970  -16.3780   -4.2250 N   0  0  0  0  0  0  0  0  0  0  0  0
   16.9160  -17.1910   -4.5630 C   0  0  0  0  0  0  0  0  0  0  0  0
   18.1900  -17.0360   -4.0820 C   0  0  0  0  0  0  0  0  0  0  0  0
  1  6  1  6  0  0  0
  1 17  1  0  0  0  0
  1  2  1  0  0  0  0
  2  3  1  0  0  0  0
  2  4  1  0  0  0  0
  5  2  1  0  0  0  0
  7  6  1  0  0  0  0
  8  9  1  0  0  0  0
  8  7  1  0  0  0  0
 10  9  2  0  0  0  0
 11 10  1  0  0  0  0
 12 11  2  0  0  0  0
 12 13  1  0  0  0  0
 13 14  1  0  0  0  0
 13  8  2  0  0  0  0
 14 16  1  0  0  0  0
 15 14  1  0  0  0  0
 16  7  2  0  0  0  0
 17 18  1  0  0  0  0
 19 18  1  0  0  0  0
 20 19  2  0  0  0  0
 21 20  1  0  0  0  0
 22 21  2  0  0  0  0
 22 23  1  0  0  0  0
 23 24  2  0  0  0  0
 24 19  1  0  0  0  0
 25 21  1  0  0  0  0
 26 25  2  0  0  0  0
 27 28  1  0  0  0  0
 27 26  1  0  0  0  0
 29 28  2  0  0  0  0
 30 29  1  0  0  0  0
 31 30  2  0  0  0  0
 31 32  1  0  0  0  0
 32 27  2  0  0  0  0
M  END
>  <minimizedAffinity>
-8.34132385

$$$$

 OpenBabel12271915443D

 32 35  0  0  1  0  0  0  0  0999 V2000
   22.5520  -14.8220   -2.1390 C   0  0  1  0  0  0  0  0  0  0  0  0
   23.3350  -16.0030   -2.5930 N   0  0  0  0  0  0  0  0  0  0  0  0
   24.1530  -16.1740   -1.9880 H   0  0  0  0  0  0  0  0  0  0  0  0
   23.6620  -15.9010   -3.5650 H   0  0  0  0  0  0  0  0  0  0  0  0
   22.7610  -16.8550   -2.5730 H   0  0  0  0  0  0  0  0  0  0  0  0
   21.7080  -15.1450   -0.8970 C   0  0  0  0  0  0  0  0  0  0  0  0
   20.2770  -14.7430   -0.9840 C   0  0  0  0  0  0  0  0  0  0  0  0
   19.3040  -15.2000   -1.9010 C   0  0  0  0  0  0  0  0  0  0  0  0
   19.3050  -16.0960   -2.9790 C   0  0  0  0  0  0  0  0  0  0  0  0
   18.1260  -16.3140   -3.7090 C   0  0  0  0  0  0  0  0  0  0  0  0
   16.9650  -15.6430   -3.3900 C   0  0  0  0  0  0  0  0  0  0  0  0
   16.9430  -14.7390   -2.3290 C   0  0  0  0  0  0  0  0  0  0  0  0
   18.1230  -14.5460   -1.6050 C   0  0  0  0  0  0  0  0  0  0  0  0
   18.3480  -13.7000   -0.5430 N   0  0  0  0  0  0  0  0  0  0  0  0
   17.6820  -13.0750   -0.1280 H   0  0  0  0  0  0  0  0  0  0  0  0
   19.6580  -13.8290   -0.1660 C   0  0  0  0  0  0  0  0  0  0  0  0
   23.4640  -13.6070   -1.9450 C   0  0  0  0  0  0  0  0  0  0  0  0
   23.1940  -13.0450   -0.6570 O   0  0  0  0  0  0  0  0  0  0  0  0
   22.7790  -11.7560   -0.5680 C   0  0  0  0  0  0  0  0  0  0  0  0
   21.6190  -11.2610   -1.1450 C   0  0  0  0  0  0  0  0  0  0  0  0
   21.2720   -9.9220   -0.9530 C   0  0  0  0  0  0  0  0  0  0  0  0
   22.1230   -9.1360   -0.1940 C   0  0  0  0  0  0  0  0  0  0  0  0
   23.2680   -9.5860    0.3600 N   0  0  0  0  0  0  0  0  0  0  0  0
   23.5710  -10.8850    0.1660 C   0  0  0  0  0  0  0  0  0  0  0  0
   20.0520   -9.3320   -1.5070 C   0  0  0  0  0  0  0  0  0  0  0  0
   18.8210   -9.4410   -0.9780 C   0  0  0  0  0  0  0  0  0  0  0  0
   17.5910   -8.8570   -1.5260 C   0  0  0  0  0  0  0  0  0  0  0  0
   16.3690   -9.4230   -1.1500 C   0  0  0  0  0  0  0  0  0  0  0  0
   15.2060   -8.8880   -1.6550 C   0  0  0  0  0  0  0  0  0  0  0  0
   15.2000   -7.8420   -2.4960 N   0  0  0  0  0  0  0  0  0  0  0  0
   16.3820   -7.3040   -2.8520 C   0  0  0  0  0  0  0  0  0  0  0  0
   17.5860   -7.7730   -2.3960 C   0  0  0  0  0  0  0  0  0  0  0  0
  1 17  1  1  0  0  0
  1  6  1  0  0  0  0
  2  5  1  0  0  0  0
  2  1  1  0  0  0  0
  2  3  1  0  0  0  0
  4  2  1  0  0  0  0
  7  6  1  0  0  0  0
  7 16  2  0  0  0  0
  8 13  1  0  0  0  0
  8  7  1  0  0  0  0
  9  8  2  0  0  0  0
 10 11  2  0  0  0  0
 10  9  1  0  0  0  0
 11 12  1  0  0  0  0
 12 13  2  0  0  0  0
 13 14  1  0  0  0  0
 14 16  1  0  0  0  0
 14 15  1  0  0  0  0
 17 18  1  0  0  0  0
 18 19  1  0  0  0  0
 19 24  2  0  0  0  0
 20 21  2  0  0  0  0
 20 19  1  0  0  0  0
 21 22  1  0  0  0  0
 22 23  2  0  0  0  0
 24 23  1  0  0  0  0
 25 26  2  0  0  0  0
 25 21  1  0  0  0  0
 27 28  1  0  0  0  0
 27 26  1  0  0  0  0
 29 28  2  0  0  0  0
 30 29  1  0  0  0  0
 31 30  2  0  0  0  0
 31 32  1  0  0  0  0
 32 27  2  0  0  0  0
M  END
>  <minimizedAffinity>
-8.27119637

$$$$

 OpenBabel12271915443D

 32 35  0  0  1  0  0  0  0  0999 V2000
   19.4450  -12.2400   -3.0400 C   0  0  1  0  0  0  0  0  0  0  0  0
   19.8800  -12.6940   -4.3890 N   0  0  0  0  0  0  0  0  0  0  0  0
   20.8050  -13.1510   -4.3570 H   0  0  0  0  0  0  0  0  0  0  0  0
   19.9200  -11.9180   -5.0650 H   0  0  0  0  0  0  0  0  0  0  0  0
   19.2200  -13.3780   -4.7770 H   0  0  0  0  0  0  0  0  0  0  0  0
   18.9630  -13.4120   -2.1740 C   0  0  0  0  0  0  0  0  0  0  0  0
   17.7440  -14.1080   -2.6730 C   0  0  0  0  0  0  0  0  0  0  0  0
   17.6650  -15.3750   -3.2950 C   0  0  0  0  0  0  0  0  0  0  0  0
   18.5950  -16.3570   -3.6620 C   0  0  0  0  0  0  0  0  0  0  0  0
   18.1610  -17.5310   -4.2960 C   0  0  0  0  0  0  0  0  0  0  0  0
   16.8260  -17.7260   -4.5800 C   0  0  0  0  0  0  0  0  0  0  0  0
   15.8840  -16.7580   -4.2350 C   0  0  0  0  0  0  0  0  0  0  0  0
   16.3340  -15.6020   -3.5910 C   0  0  0  0  0  0  0  0  0  0  0  0
   15.6030  -14.5110   -3.1780 N   0  0  0  0  0  0  0  0  0  0  0  0
   14.6150  -14.3800   -3.2900 H   0  0  0  0  0  0  0  0  0  0  0  0
   16.4660  -13.6090   -2.6150 C   0  0  0  0  0  0  0  0  0  0  0  0
   20.5420  -11.4080   -2.3660 C   0  0  0  0  0  0  0  0  0  0  0  0
   21.7920  -11.7360   -2.9790 O   0  0  0  0  0  0  0  0  0  0  0  0
   22.8100  -12.1940   -2.2090 C   0  0  0  0  0  0  0  0  0  0  0  0
   23.9550  -11.4720   -1.9060 C   0  0  0  0  0  0  0  0  0  0  0  0
   24.9220  -12.0320   -1.0680 C   0  0  0  0  0  0  0  0  0  0  0  0
   24.6940  -13.3090   -0.5820 C   0  0  0  0  0  0  0  0  0  0  0  0
   23.6010  -14.0420   -0.8790 N   0  0  0  0  0  0  0  0  0  0  0  0
   22.6810  -13.4700   -1.6820 C   0  0  0  0  0  0  0  0  0  0  0  0
   26.1430  -11.3230   -0.6810 C   0  0  0  0  0  0  0  0  0  0  0  0
   27.1220  -11.8200    0.0940 C   0  0  0  0  0  0  0  0  0  0  0  0
   28.3480  -11.1180    0.4910 C   0  0  0  0  0  0  0  0  0  0  0  0
   28.3390   -9.7200    0.4880 C   0  0  0  0  0  0  0  0  0  0  0  0
   29.4810   -9.0460    0.8570 C   0  0  0  0  0  0  0  0  0  0  0  0
   30.6050   -9.6820    1.2200 N   0  0  0  0  0  0  0  0  0  0  0  0
   30.6050  -11.0280    1.2210 C   0  0  0  0  0  0  0  0  0  0  0  0
   29.5130  -11.7770    0.8680 C   0  0  0  0  0  0  0  0  0  0  0  0
  1 17  1  1  0  0  0
  1  6  1  0  0  0  0
  2  3  1  0  0  0  0
  2  1  1  0  0  0  0
  4  2  1  0  0  0  0
  5  2  1  0  0  0  0
  7 16  2  0  0  0  0
  7  6  1  0  0  0  0
  8  7  1  0  0  0  0
  9  8  2  0  0  0  0
 10  9  1  0  0  0  0
 11 10  2  0  0  0  0
 11 12  1  0  0  0  0
 12 13  2  0  0  0  0
 13  8  1  0  0  0  0
 13 14  1  0  0  0  0
 14 16  1  0  0  0  0
 15 14  1  0  0  0  0
 18 17  1  0  0  0  0
 18 19  1  0  0  0  0
 19 20  2  0  0  0  0
 19 24  1  0  0  0  0
 20 21  1  0  0  0  0
 21 25  1  0  0  0  0
 21 22  2  0  0  0  0
 23 22  1  0  0  0  0
 24 23  2  0  0  0  0
 25 26  2  0  0  0  0
 26 27  1  0  0  0  0
 27 32  1  0  0  0  0
 28 27  2  0  0  0  0
 28 29  1  0  0  0  0
 29 30  2  0  0  0  0
 30 31  1  0  0  0  0
 32 31  2  0  0  0  0
M  END
>  <minimizedAffinity>
-8.10271645

$$$$

 OpenBabel12271915443D

 32 35  0  0  1  0  0  0  0  0999 V2000
   19.6730  -11.6470   -1.2360 C   0  0  1  0  0  0  0  0  0  0  0  0
   19.6510  -11.7860   -2.7170 N   0  0  0  0  0  0  0  0  0  0  0  0
   20.5410  -12.1640   -3.0780 H   0  0  0  0  0  0  0  0  0  0  0  0
   19.4610  -10.8900   -3.1880 H   0  0  0  0  0  0  0  0  0  0  0  0
   18.9080  -12.4290   -3.0150 H   0  0  0  0  0  0  0  0  0  0  0  0
   19.5120  -13.0030   -0.5350 C   0  0  0  0  0  0  0  0  0  0  0  0
   19.5960  -14.1910   -1.4300 C   0  0  0  0  0  0  0  0  0  0  0  0
   18.5540  -14.7900   -2.1720 C   0  0  0  0  0  0  0  0  0  0  0  0
   17.1820  -14.5450   -2.3290 C   0  0  0  0  0  0  0  0  0  0  0  0
   16.4140  -15.3720   -3.1610 C   0  0  0  0  0  0  0  0  0  0  0  0
   16.9870  -16.4390   -3.8190 C   0  0  0  0  0  0  0  0  0  0  0  0
   18.3460  -16.7100   -3.6700 C   0  0  0  0  0  0  0  0  0  0  0  0
   19.0990  -15.8660   -2.8470 C   0  0  0  0  0  0  0  0  0  0  0  0
   20.4370  -15.9450   -2.5330 N   0  0  0  0  0  0  0  0  0  0  0  0
   21.0820  -16.6440   -2.8510 H   0  0  0  0  0  0  0  0  0  0  0  0
   20.7340  -14.9200   -1.6760 C   0  0  0  0  0  0  0  0  0  0  0  0
   20.9200  -10.8810   -0.7800 C   0  0  0  0  0  0  0  0  0  0  0  0
   21.9180  -11.8350   -0.4040 O   0  0  0  0  0  0  0  0  0  0  0  0
   23.1830  -11.6930   -0.8720 C   0  0  0  0  0  0  0  0  0  0  0  0
   24.3230  -11.7250   -0.0810 C   0  0  0  0  0  0  0  0  0  0  0  0
   25.5800  -11.6070   -0.6780 C   0  0  0  0  0  0  0  0  0  0  0  0
   25.6290  -11.4470   -2.0530 C   0  0  0  0  0  0  0  0  0  0  0  0
   24.5370  -11.3890   -2.8430 N   0  0  0  0  0  0  0  0  0  0  0  0
   23.3390  -11.5170   -2.2380 C   0  0  0  0  0  0  0  0  0  0  0  0
   26.8290  -11.6570    0.0850 C   0  0  0  0  0  0  0  0  0  0  0  0
   27.8770  -10.8330   -0.0780 C   0  0  0  0  0  0  0  0  0  0  0  0
   29.1340  -10.8750    0.6780 C   0  0  0  0  0  0  0  0  0  0  0  0
   29.7840   -9.6660    0.9460 C   0  0  0  0  0  0  0  0  0  0  0  0
   30.9650   -9.6890    1.6530 C   0  0  0  0  0  0  0  0  0  0  0  0
   31.5160  -10.8280    2.0960 N   0  0  0  0  0  0  0  0  0  0  0  0
   30.8830  -11.9880    1.8330 C   0  0  0  0  0  0  0  0  0  0  0  0
   29.7050  -12.0560    1.1370 C   0  0  0  0  0  0  0  0  0  0  0  0
  1 17  1  6  0  0  0
  1  6  1  0  0  0  0
  2  1  1  0  0  0  0
  3  2  1  0  0  0  0
  4  2  1  0  0  0  0
  5  2  1  0  0  0  0
  7  6  1  0  0  0  0
  8  7  1  0  0  0  0
  9  8  1  0  0  0  0
 10  9  2  0  0  0  0
 11 12  2  0  0  0  0
 11 10  1  0  0  0  0
 12 13  1  0  0  0  0
 13 14  1  0  0  0  0
 13  8  2  0  0  0  0
 14 16  1  0  0  0  0
 15 14  1  0  0  0  0
 16  7  2  0  0  0  0
 17 18  1  0  0  0  0
 19 18  1  0  0  0  0
 19 20  2  0  0  0  0
 21 20  1  0  0  0  0
 21 25  1  0  0  0  0
 22 21  2  0  0  0  0
 23 24  2  0  0  0  0
 23 22  1  0  0  0  0
 24 19  1  0  0  0  0
 26 25  2  0  0  0  0
 26 27  1  0  0  0  0
 27 28  2  0  0  0  0
 27 32  1  0  0  0  0
 28 29  1  0  0  0  0
 29 30  2  0  0  0  0
 31 30  1  0  0  0  0
 32 31  2  0  0  0  0
M  END
>  <minimizedAffinity>
-8.01353741

$$$$
