
 OpenBabel12271915473D

 32 35  0  0  1  0  0  0  0  0999 V2000
   22.7910  -13.6600   -0.6960 C   0  0  0  0  0  0  0  0  0  0  0  0
   21.4240  -13.8250   -1.0480 C   0  0  0  0  0  0  0  0  0  0  0  0
   21.0360  -14.7840   -1.9510 C   0  0  0  0  0  0  0  0  0  0  0  0
   22.0600  -15.5460   -2.5000 C   0  0  0  0  0  0  0  0  0  0  0  0
   23.3570  -15.4330   -2.2190 N   0  0  0  0  0  0  0  0  0  0  0  0
   23.7250  -14.5240   -1.2960 C   0  0  0  0  0  0  0  0  0  0  0  0
   19.6010  -14.9080   -2.2920 C   0  0  0  0  0  0  0  0  0  0  0  0
   18.6000  -14.0950   -1.8220 C   0  0  0  0  0  0  0  0  0  0  0  0
   17.2400  -14.2280   -2.1560 C   0  0  0  0  0  0  0  0  0  0  0  0
   16.9080  -15.2880   -3.0190 C   0  0  0  0  0  0  0  0  0  0  0  0
   15.6990  -15.7250   -3.5260 N   0  0  0  0  0  0  0  0  0  0  0  0
   14.7900  -15.3690   -3.3850 H   0  0  0  0  0  0  0  0  0  0  0  0
   15.8420  -16.7820   -4.3160 N   0  0  0  0  0  0  0  0  0  0  0  0
   17.1630  -17.0540   -4.3270 C   0  0  0  0  0  0  0  0  0  0  0  0
   17.7090  -18.1690   -5.0860 C   0  0  0  0  0  0  0  0  0  0  0  0
   17.8440  -16.1090   -3.5140 C   0  0  0  0  0  0  0  0  0  0  0  0
   19.2140  -15.9460   -3.1880 C   0  0  0  0  0  0  0  0  0  0  0  0
   22.9880  -12.6040    0.1250 O   0  0  0  0  0  0  0  0  0  0  0  0
   24.1250  -11.8160   -0.0230 C   0  0  0  0  0  0  0  0  0  0  0  0
   23.7910  -10.3840   -0.4720 C   0  0  1  0  0  0  0  0  0  0  0  0
   24.9990   -9.5040   -0.2730 N   0  0  0  0  0  0  0  0  0  0  0  0
   25.2380   -9.4200    0.7360 H   0  0  0  0  0  0  0  0  0  0  0  0
   24.8880   -8.5590   -0.6200 H   0  0  0  0  0  0  0  0  0  0  0  0
   25.8450   -9.9390   -0.7060 H   0  0  0  0  0  0  0  0  0  0  0  0
   23.2670  -10.2760   -1.9280 C   0  0  0  0  0  0  0  0  0  0  0  0
   21.7650  -10.3100   -2.0510 C   0  0  0  0  0  0  0  0  0  0  0  0
   20.9700   -9.8970   -0.9770 C   0  0  0  0  0  0  0  0  0  0  0  0
   19.5720   -9.9530   -1.0680 C   0  0  0  0  0  0  0  0  0  0  0  0
   18.9520  -10.4000   -2.2260 C   0  0  0  0  0  0  0  0  0  0  0  0
   17.0880  -10.4430   -2.3690 Br  0  0  0  0  0  0  0  0  0  0  0  0
   19.7460  -10.7960   -3.2970 C   0  0  0  0  0  0  0  0  0  0  0  0
   21.1520  -10.7440   -3.2050 C   0  0  0  0  0  0  0  0  0  0  0  0
  1 18  1  0  0  0  0
  2  1  1  0  0  0  0
  3  2  2  0  0  0  0
  4  5  2  0  0  0  0
  4  3  1  0  0  0  0
  5  6  1  0  0  0  0
  6  1  2  0  0  0  0
  7  3  1  0  0  0  0
  7  8  2  0  0  0  0
  9  8  1  0  0  0  0
 10  9  2  0  0  0  0
 11 12  1  0  0  0  0
 11 10  1  0  0  0  0
 13 11  1  0  0  0  0
 14 13  2  0  0  0  0
 14 16  1  0  0  0  0
 15 14  1  0  0  0  0
 16 17  2  0  0  0  0
 16 10  1  0  0  0  0
 17  7  1  0  0  0  0
 19 18  1  0  0  0  0
 20 25  1  6  0  0  0
 20 21  1  0  0  0  0
 20 19  1  0  0  0  0
 21 22  1  0  0  0  0
 23 21  1  0  0  0  0
 24 21  1  0  0  0  0
 26 25  1  0  0  0  0
 26 27  2  0  0  0  0
 28 27  1  0  0  0  0
 29 28  2  0  0  0  0
 30 29  1  0  0  0  0
 31 32  2  0  0  0  0
 31 29  1  0  0  0  0
 32 26  1  0  0  0  0
M  END
>  <minimizedAffinity>
-9.48471832

$$$$

 OpenBabel12271915473D

 32 35  0  0  1  0  0  0  0  0999 V2000
   22.3480  -13.2190   -0.6990 C   0  0  0  0  0  0  0  0  0  0  0  0
   21.0190  -13.4900   -1.1240 C   0  0  0  0  0  0  0  0  0  0  0  0
   20.7190  -14.6350   -1.8220 C   0  0  0  0  0  0  0  0  0  0  0  0
   21.7920  -15.4750   -2.0950 C   0  0  0  0  0  0  0  0  0  0  0  0
   23.0570  -15.2710   -1.7340 N   0  0  0  0  0  0  0  0  0  0  0  0
   23.3360  -14.1720   -1.0070 C   0  0  0  0  0  0  0  0  0  0  0  0
   19.3210  -14.8650   -2.2520 C   0  0  0  0  0  0  0  0  0  0  0  0
   18.2340  -14.1370   -1.8420 C   0  0  0  0  0  0  0  0  0  0  0  0
   16.9110  -14.3700   -2.2600 C   0  0  0  0  0  0  0  0  0  0  0  0
   16.7160  -15.4440   -3.1470 C   0  0  0  0  0  0  0  0  0  0  0  0
   15.5770  -15.9680   -3.7310 N   0  0  0  0  0  0  0  0  0  0  0  0
   14.6370  -15.6850   -3.6440 H   0  0  0  0  0  0  0  0  0  0  0  0
   15.8500  -17.0040   -4.5150 N   0  0  0  0  0  0  0  0  0  0  0  0
   17.1870  -17.1730   -4.4450 C   0  0  0  0  0  0  0  0  0  0  0  0
   17.8630  -18.2360   -5.1740 C   0  0  0  0  0  0  0  0  0  0  0  0
   17.7410  -16.1870   -3.5870 C   0  0  0  0  0  0  0  0  0  0  0  0
   19.0710  -15.9220   -3.1760 C   0  0  0  0  0  0  0  0  0  0  0  0
   22.4640  -12.0030   -0.1200 O   0  0  0  0  0  0  0  0  0  0  0  0
   22.2870  -10.8540   -0.8840 C   0  0  0  0  0  0  0  0  0  0  0  0
   23.5660  -10.4470   -1.6350 C   0  0  1  0  0  0  0  0  0  0  0  0
   23.1940   -9.8750   -2.9800 N   0  0  0  0  0  0  0  0  0  0  0  0
   22.7490  -10.5980   -3.5830 H   0  0  0  0  0  0  0  0  0  0  0  0
   23.9770   -9.5070   -3.5070 H   0  0  0  0  0  0  0  0  0  0  0  0
   22.4640   -9.1360   -2.8760 H   0  0  0  0  0  0  0  0  0  0  0  0
   24.4800   -9.4670   -0.8550 C   0  0  0  0  0  0  0  0  0  0  0  0
   25.7790  -10.0690   -0.3860 C   0  0  0  0  0  0  0  0  0  0  0  0
   26.8650   -9.2380   -0.0940 C   0  0  0  0  0  0  0  0  0  0  0  0
   28.0890   -9.7880    0.3140 C   0  0  0  0  0  0  0  0  0  0  0  0
   28.2400  -11.1610    0.4530 C   0  0  0  0  0  0  0  0  0  0  0  0
   29.8570  -11.9010    1.0310 Br  0  0  0  0  0  0  0  0  0  0  0  0
   27.1530  -11.9830    0.1750 C   0  0  0  0  0  0  0  0  0  0  0  0
   25.9230  -11.4300   -0.2390 C   0  0  0  0  0  0  0  0  0  0  0  0
  1 18  1  0  0  0  0
  2  1  2  0  0  0  0
  3  2  1  0  0  0  0
  4  3  2  0  0  0  0
  4  5  1  0  0  0  0
  5  6  2  0  0  0  0
  6  1  1  0  0  0  0
  7  8  2  0  0  0  0
  7  3  1  0  0  0  0
  9  8  1  0  0  0  0
 10  9  2  0  0  0  0
 11 12  1  0  0  0  0
 11 10  1  0  0  0  0
 13 14  2  0  0  0  0
 13 11  1  0  0  0  0
 14 16  1  0  0  0  0
 15 14  1  0  0  0  0
 16 17  2  0  0  0  0
 16 10  1  0  0  0  0
 17  7  1  0  0  0  0
 19 18  1  0  0  0  0
 20 19  1  1  0  0  0
 20 25  1  0  0  0  0
 21 24  1  0  0  0  0
 21 20  1  0  0  0  0
 22 21  1  0  0  0  0
 23 21  1  0  0  0  0
 25 26  1  0  0  0  0
 26 32  2  0  0  0  0
 26 27  1  0  0  0  0
 27 28  2  0  0  0  0
 28 29  1  0  0  0  0
 29 30  1  0  0  0  0
 31 29  2  0  0  0  0
 32 31  1  0  0  0  0
M  END
>  <minimizedAffinity>
-9.48308754

$$$$

 OpenBabel12271915473D

 32 35  0  0  1  0  0  0  0  0999 V2000
   22.6170  -13.3610   -0.7810 C   0  0  0  0  0  0  0  0  0  0  0  0
   21.2660  -13.5770   -1.1650 C   0  0  0  0  0  0  0  0  0  0  0  0
   20.9110  -14.6610   -1.9300 C   0  0  0  0  0  0  0  0  0  0  0  0
   21.9530  -15.4980   -2.3110 C   0  0  0  0  0  0  0  0  0  0  0  0
   23.2370  -15.3440   -1.9930 N   0  0  0  0  0  0  0  0  0  0  0  0
   23.5710  -14.3060   -1.2020 C   0  0  0  0  0  0  0  0  0  0  0  0
   19.4920  -14.8350   -2.3120 C   0  0  0  0  0  0  0  0  0  0  0  0
   18.4550  -14.0360   -1.9000 C   0  0  0  0  0  0  0  0  0  0  0  0
   17.1110  -14.2160   -2.2720 C   0  0  0  0  0  0  0  0  0  0  0  0
   16.8350  -15.3110   -3.1120 C   0  0  0  0  0  0  0  0  0  0  0  0
   15.6550  -15.7960   -3.6430 N   0  0  0  0  0  0  0  0  0  0  0  0
   14.7330  -15.4610   -3.5420 H   0  0  0  0  0  0  0  0  0  0  0  0
   15.8510  -16.8730   -4.3950 N   0  0  0  0  0  0  0  0  0  0  0  0
   17.1790  -17.1080   -4.3550 C   0  0  0  0  0  0  0  0  0  0  0  0
   17.7790  -18.2300   -5.0610 C   0  0  0  0  0  0  0  0  0  0  0  0
   17.8080  -16.1210   -3.5510 C   0  0  0  0  0  0  0  0  0  0  0  0
   19.1610  -15.9100   -3.1870 C   0  0  0  0  0  0  0  0  0  0  0  0
   22.7840  -12.1930   -0.1210 O   0  0  0  0  0  0  0  0  0  0  0  0
   24.0500  -11.6210   -0.0400 C   0  0  0  0  0  0  0  0  0  0  0  0
   24.1470  -10.2990   -0.8200 C   0  0  1  0  0  0  0  0  0  0  0  0
   25.2240   -9.4380   -0.2100 N   0  0  0  0  0  0  0  0  0  0  0  0
   24.9740   -9.1580    0.7610 H   0  0  0  0  0  0  0  0  0  0  0  0
   25.4070   -8.5800   -0.7160 H   0  0  0  0  0  0  0  0  0  0  0  0
   26.1110   -9.9790   -0.1050 H   0  0  0  0  0  0  0  0  0  0  0  0
   24.3770  -10.4710   -2.3430 C   0  0  0  0  0  0  0  0  0  0  0  0
   23.2060  -10.0630   -3.1980 C   0  0  0  0  0  0  0  0  0  0  0  0
   22.2870  -11.0260   -3.6250 C   0  0  0  0  0  0  0  0  0  0  0  0
   21.2100  -10.6640   -4.4470 C   0  0  0  0  0  0  0  0  0  0  0  0
   21.0260   -9.3450   -4.8370 C   0  0  0  0  0  0  0  0  0  0  0  0
   19.5720   -8.8460   -5.9030 Br  0  0  0  0  0  0  0  0  0  0  0  0
   21.9340   -8.3870   -4.3990 C   0  0  0  0  0  0  0  0  0  0  0  0
   23.0190   -8.7510   -3.5760 C   0  0  0  0  0  0  0  0  0  0  0  0
  1 18  1  0  0  0  0
  2  1  1  0  0  0  0
  3  2  2  0  0  0  0
  4  5  2  0  0  0  0
  4  3  1  0  0  0  0
  5  6  1  0  0  0  0
  6  1  2  0  0  0  0
  7  3  1  0  0  0  0
  7  8  2  0  0  0  0
  9  8  1  0  0  0  0
 10  9  2  0  0  0  0
 11 12  1  0  0  0  0
 11 10  1  0  0  0  0
 13 14  2  0  0  0  0
 13 11  1  0  0  0  0
 14 16  1  0  0  0  0
 15 14  1  0  0  0  0
 16 17  2  0  0  0  0
 16 10  1  0  0  0  0
 17  7  1  0  0  0  0
 18 19  1  0  0  0  0
 20 25  1  6  0  0  0
 20 21  1  0  0  0  0
 20 19  1  0  0  0  0
 21 24  1  0  0  0  0
 21 22  1  0  0  0  0
 23 21  1  0  0  0  0
 26 25  1  0  0  0  0
 27 26  2  0  0  0  0
 28 27  1  0  0  0  0
 29 28  2  0  0  0  0
 29 31  1  0  0  0  0
 30 29  1  0  0  0  0
 31 32  2  0  0  0  0
 32 26  1  0  0  0  0
M  END
>  <minimizedAffinity>
-9.22178459

$$$$

 OpenBabel12271915473D

 32 35  0  0  1  0  0  0  0  0999 V2000
   24.2990  -12.7320   -0.0770 C   0  0  0  0  0  0  0  0  0  0  0  0
   22.8890  -12.8380   -0.2210 C   0  0  0  0  0  0  0  0  0  0  0  0
   22.3220  -13.9140   -0.8600 C   0  0  0  0  0  0  0  0  0  0  0  0
   23.2110  -14.8540   -1.3640 C   0  0  0  0  0  0  0  0  0  0  0  0
   24.5380  -14.8050   -1.2700 N   0  0  0  0  0  0  0  0  0  0  0  0
   25.0860  -13.7740   -0.6000 C   0  0  0  0  0  0  0  0  0  0  0  0
   20.8490  -13.9710   -0.9940 C   0  0  0  0  0  0  0  0  0  0  0  0
   19.9540  -13.2510   -0.2440 C   0  0  0  0  0  0  0  0  0  0  0  0
   18.5560  -13.3190   -0.3830 C   0  0  0  0  0  0  0  0  0  0  0  0
   18.0680  -14.2110   -1.3550 C   0  0  0  0  0  0  0  0  0  0  0  0
   16.7830  -14.5490   -1.7390 N   0  0  0  0  0  0  0  0  0  0  0  0
   15.9170  -14.2210   -1.4010 H   0  0  0  0  0  0  0  0  0  0  0  0
   16.7750  -15.4530   -2.7110 N   0  0  0  0  0  0  0  0  0  0  0  0
   18.0710  -15.7220   -2.9710 C   0  0  0  0  0  0  0  0  0  0  0  0
   18.4640  -16.6890   -3.9850 C   0  0  0  0  0  0  0  0  0  0  0  0
   18.8930  -14.9360   -2.1210 C   0  0  0  0  0  0  0  0  0  0  0  0
   20.3010  -14.8360   -1.9850 C   0  0  0  0  0  0  0  0  0  0  0  0
   24.6720  -11.5600    0.4850 O   0  0  0  0  0  0  0  0  0  0  0  0
   25.5580  -10.7230   -0.1860 C   0  0  0  0  0  0  0  0  0  0  0  0
   24.8440   -9.5650   -0.9010 C   0  0  1  0  0  0  0  0  0  0  0  0
   25.7100   -8.3320   -0.8430 N   0  0  0  0  0  0  0  0  0  0  0  0
   25.8310   -8.0060    0.1380 H   0  0  0  0  0  0  0  0  0  0  0  0
   25.3460   -7.5430   -1.3630 H   0  0  0  0  0  0  0  0  0  0  0  0
   26.6790   -8.5490   -1.1680 H   0  0  0  0  0  0  0  0  0  0  0  0
   24.4280   -9.8760   -2.3620 C   0  0  0  0  0  0  0  0  0  0  0  0
   22.9530  -10.1210   -2.5490 C   0  0  0  0  0  0  0  0  0  0  0  0
   22.0340   -9.5360   -1.6710 C   0  0  0  0  0  0  0  0  0  0  0  0
   20.6610   -9.7810   -1.8160 C   0  0  0  0  0  0  0  0  0  0  0  0
   20.1870  -10.5900   -2.8390 C   0  0  0  0  0  0  0  0  0  0  0  0
   18.3550  -10.8930   -3.0610 Br  0  0  0  0  0  0  0  0  0  0  0  0
   21.1020  -11.1580   -3.7190 C   0  0  0  0  0  0  0  0  0  0  0  0
   22.4830  -10.9150   -3.5710 C   0  0  0  0  0  0  0  0  0  0  0  0
  1 18  1  0  0  0  0
  2  1  1  0  0  0  0
  3  2  2  0  0  0  0
  4  5  2  0  0  0  0
  4  3  1  0  0  0  0
  5  6  1  0  0  0  0
  6  1  2  0  0  0  0
  7  3  1  0  0  0  0
  7  8  2  0  0  0  0
  9  8  1  0  0  0  0
 10  9  2  0  0  0  0
 11 12  1  0  0  0  0
 11 10  1  0  0  0  0
 13 11  1  0  0  0  0
 14 13  2  0  0  0  0
 14 16  1  0  0  0  0
 15 14  1  0  0  0  0
 16 17  2  0  0  0  0
 16 10  1  0  0  0  0
 17  7  1  0  0  0  0
 19 18  1  0  0  0  0
 20 25  1  6  0  0  0
 20 21  1  0  0  0  0
 20 19  1  0  0  0  0
 21 22  1  0  0  0  0
 23 21  1  0  0  0  0
 24 21  1  0  0  0  0
 26 25  1  0  0  0  0
 26 27  2  0  0  0  0
 28 27  1  0  0  0  0
 29 28  2  0  0  0  0
 30 29  1  0  0  0  0
 31 32  2  0  0  0  0
 31 29  1  0  0  0  0
 32 26  1  0  0  0  0
M  END
>  <minimizedAffinity>
-9.09165668

$$$$

 OpenBabel12271915473D

 32 35  0  0  1  0  0  0  0  0999 V2000
   24.9610  -10.4920   -3.3770 C   0  0  0  0  0  0  0  0  0  0  0  0
   23.6370  -10.9840   -3.2280 C   0  0  0  0  0  0  0  0  0  0  0  0
   22.5700  -10.3320   -3.7970 C   0  0  0  0  0  0  0  0  0  0  0  0
   22.8760   -9.1690   -4.4930 C   0  0  0  0  0  0  0  0  0  0  0  0
   24.0920   -8.6520   -4.6580 N   0  0  0  0  0  0  0  0  0  0  0  0
   25.1380   -9.3220   -4.1390 C   0  0  0  0  0  0  0  0  0  0  0  0
   21.2090  -10.8800   -3.6030 C   0  0  0  0  0  0  0  0  0  0  0  0
   20.6380  -11.8730   -4.3580 C   0  0  0  0  0  0  0  0  0  0  0  0
   19.3420  -12.3820   -4.1600 C   0  0  0  0  0  0  0  0  0  0  0  0
   18.5940  -11.8010   -3.1200 C   0  0  0  0  0  0  0  0  0  0  0  0
   17.3070  -12.0260   -2.6670 N   0  0  0  0  0  0  0  0  0  0  0  0
   16.6280  -12.6640   -2.9890 H   0  0  0  0  0  0  0  0  0  0  0  0
   16.9940  -11.2410   -1.6430 N   0  0  0  0  0  0  0  0  0  0  0  0
   18.0850  -10.4790   -1.4200 C   0  0  0  0  0  0  0  0  0  0  0  0
   18.1150   -9.4750   -0.3670 C   0  0  0  0  0  0  0  0  0  0  0  0
   19.1020  -10.8330   -2.3450 C   0  0  0  0  0  0  0  0  0  0  0  0
   20.4200  -10.3490   -2.5420 C   0  0  0  0  0  0  0  0  0  0  0  0
   25.8600  -11.2070   -2.6630 O   0  0  0  0  0  0  0  0  0  0  0  0
   25.6930  -11.3510   -1.2900 C   0  0  0  0  0  0  0  0  0  0  0  0
   25.1360  -12.7320   -0.9080 C   0  0  1  0  0  0  0  0  0  0  0  0
   26.1940  -13.5110   -0.1680 N   0  0  0  0  0  0  0  0  0  0  0  0
   27.0100  -13.7110   -0.7840 H   0  0  0  0  0  0  0  0  0  0  0  0
   25.8800  -14.4050    0.1890 H   0  0  0  0  0  0  0  0  0  0  0  0
   26.5910  -12.9410    0.6120 H   0  0  0  0  0  0  0  0  0  0  0  0
   23.8170  -12.6870   -0.0950 C   0  0  0  0  0  0  0  0  0  0  0  0
   22.6780  -13.4550   -0.7140 C   0  0  0  0  0  0  0  0  0  0  0  0
   22.9260  -14.3280   -1.7780 C   0  0  0  0  0  0  0  0  0  0  0  0
   21.8700  -15.0240   -2.3840 C   0  0  0  0  0  0  0  0  0  0  0  0
   20.5680  -14.8760   -1.9300 C   0  0  0  0  0  0  0  0  0  0  0  0
   19.1580  -15.8280   -2.7080 Br  0  0  0  0  0  0  0  0  0  0  0  0
   20.3270  -14.0170   -0.8620 C   0  0  0  0  0  0  0  0  0  0  0  0
   21.3880  -13.3140   -0.2560 C   0  0  0  0  0  0  0  0  0  0  0  0
  1  2  1  0  0  0  0
  1 18  1  0  0  0  0
  3  7  1  0  0  0  0
  3  2  2  0  0  0  0
  4  3  1  0  0  0  0
  5  4  2  0  0  0  0
  5  6  1  0  0  0  0
  6  1  2  0  0  0  0
  7 17  2  0  0  0  0
  8  9  2  0  0  0  0
  8  7  1  0  0  0  0
  9 10  1  0  0  0  0
 10 11  1  0  0  0  0
 10 16  2  0  0  0  0
 11 13  1  0  0  0  0
 12 11  1  0  0  0  0
 13 14  2  0  0  0  0
 14 15  1  0  0  0  0
 16 14  1  0  0  0  0
 17 16  1  0  0  0  0
 18 19  1  0  0  0  0
 20 19  1  1  0  0  0
 20 21  1  0  0  0  0
 20 25  1  0  0  0  0
 21 23  1  0  0  0  0
 21 24  1  0  0  0  0
 22 21  1  0  0  0  0
 26 32  1  0  0  0  0
 26 25  1  0  0  0  0
 27 26  2  0  0  0  0
 28 29  2  0  0  0  0
 28 27  1  0  0  0  0
 29 31  1  0  0  0  0
 30 29  1  0  0  0  0
 31 32  2  0  0  0  0
M  END
>  <minimizedAffinity>
-8.87769985

$$$$

 OpenBabel12271915473D

 32 35  0  0  1  0  0  0  0  0999 V2000
   19.9660   -8.7760   -1.5710 C   0  0  0  0  0  0  0  0  0  0  0  0
   21.0030   -9.7070   -1.2990 C   0  0  0  0  0  0  0  0  0  0  0  0
   22.2860   -9.2850   -1.0480 C   0  0  0  0  0  0  0  0  0  0  0  0
   22.4920   -7.9120   -1.1050 C   0  0  0  0  0  0  0  0  0  0  0  0
   21.5660   -6.9920   -1.3660 N   0  0  0  0  0  0  0  0  0  0  0  0
   20.3000   -7.4090   -1.5610 C   0  0  0  0  0  0  0  0  0  0  0  0
   23.3330  -10.2970   -0.7800 C   0  0  0  0  0  0  0  0  0  0  0  0
   24.5850  -10.0320   -0.2850 C   0  0  0  0  0  0  0  0  0  0  0  0
   25.5680  -11.0070   -0.0370 C   0  0  0  0  0  0  0  0  0  0  0  0
   25.2240  -12.3350   -0.3450 C   0  0  0  0  0  0  0  0  0  0  0  0
   25.9330  -13.5190   -0.2570 N   0  0  0  0  0  0  0  0  0  0  0  0
   26.8550  -13.6810    0.0530 H   0  0  0  0  0  0  0  0  0  0  0  0
   25.2160  -14.5610   -0.6620 N   0  0  0  0  0  0  0  0  0  0  0  0
   24.0190  -14.0600   -1.0280 C   0  0  0  0  0  0  0  0  0  0  0  0
   22.9580  -14.9110   -1.5450 C   0  0  0  0  0  0  0  0  0  0  0  0
   24.0150  -12.6540   -0.8250 C   0  0  0  0  0  0  0  0  0  0  0  0
   23.0260  -11.6630   -1.0450 C   0  0  0  0  0  0  0  0  0  0  0  0
   18.8010   -9.3820   -1.8930 O   0  0  0  0  0  0  0  0  0  0  0  0
   18.2630  -10.3410   -1.0410 C   0  0  0  0  0  0  0  0  0  0  0  0
   17.8410  -11.6170   -1.7860 C   0  0  1  0  0  0  0  0  0  0  0  0
   18.2200  -11.4950   -3.2410 N   0  0  0  0  0  0  0  0  0  0  0  0
   17.6900  -10.7280   -3.7020 H   0  0  0  0  0  0  0  0  0  0  0  0
   18.0490  -12.3300   -3.7880 H   0  0  0  0  0  0  0  0  0  0  0  0
   19.2220  -11.2140   -3.3360 H   0  0  0  0  0  0  0  0  0  0  0  0
   18.4050  -12.9280   -1.1800 C   0  0  0  0  0  0  0  0  0  0  0  0
   18.1710  -14.1540   -2.0230 C   0  0  0  0  0  0  0  0  0  0  0  0
   19.2490  -14.9720   -2.3750 C   0  0  0  0  0  0  0  0  0  0  0  0
   19.0490  -16.0990   -3.1860 C   0  0  0  0  0  0  0  0  0  0  0  0
   17.7810  -16.4330   -3.6380 C   0  0  0  0  0  0  0  0  0  0  0  0
   17.4990  -17.9540   -4.6900 Br  0  0  0  0  0  0  0  0  0  0  0  0
   16.7090  -15.6250   -3.2740 C   0  0  0  0  0  0  0  0  0  0  0  0
   16.9100  -14.4900   -2.4630 C   0  0  0  0  0  0  0  0  0  0  0  0
  1  6  2  0  0  0  0
  1  2  1  0  0  0  0
  2  3  2  0  0  0  0
  3  7  1  0  0  0  0
  4  3  1  0  0  0  0
  5  4  2  0  0  0  0
  6  5  1  0  0  0  0
  7  8  2  0  0  0  0
  8  9  1  0  0  0  0
 10 11  1  0  0  0  0
 10  9  2  0  0  0  0
 11 12  1  0  0  0  0
 13 11  1  0  0  0  0
 14 16  1  0  0  0  0
 14 13  2  0  0  0  0
 15 14  1  0  0  0  0
 16 10  1  0  0  0  0
 17 16  2  0  0  0  0
 17  7  1  0  0  0  0
 18  1  1  0  0  0  0
 18 19  1  0  0  0  0
 20 25  1  1  0  0  0
 20 19  1  0  0  0  0
 21 20  1  0  0  0  0
 22 21  1  0  0  0  0
 23 21  1  0  0  0  0
 24 21  1  0  0  0  0
 26 25  1  0  0  0  0
 27 26  1  0  0  0  0
 28 27  2  0  0  0  0
 29 31  2  0  0  0  0
 29 28  1  0  0  0  0
 30 29  1  0  0  0  0
 31 32  1  0  0  0  0
 32 26  2  0  0  0  0
M  END
>  <minimizedAffinity>
-8.75953293

$$$$

 OpenBabel12271915473D

 32 35  0  0  1  0  0  0  0  0999 V2000
   18.4270  -11.1770   -2.2980 C   0  0  0  0  0  0  0  0  0  0  0  0
   19.8370  -11.1410   -2.1250 C   0  0  0  0  0  0  0  0  0  0  0  0
   20.4250  -10.2280   -1.2840 C   0  0  0  0  0  0  0  0  0  0  0  0
   19.5580   -9.3470   -0.6490 C   0  0  0  0  0  0  0  0  0  0  0  0
   18.2330   -9.3240   -0.7780 N   0  0  0  0  0  0  0  0  0  0  0  0
   17.6590  -10.2530   -1.5660 C   0  0  0  0  0  0  0  0  0  0  0  0
   21.8990  -10.2250   -1.1480 C   0  0  0  0  0  0  0  0  0  0  0  0
   22.5890   -9.9760    0.0120 C   0  0  0  0  0  0  0  0  0  0  0  0
   23.9910   -9.9760    0.1230 C   0  0  0  0  0  0  0  0  0  0  0  0
   24.7120  -10.2350   -1.0570 C   0  0  0  0  0  0  0  0  0  0  0  0
   26.0680  -10.2870   -1.3200 N   0  0  0  0  0  0  0  0  0  0  0  0
   26.8340  -10.1520   -0.7140 H   0  0  0  0  0  0  0  0  0  0  0  0
   26.3190  -10.5660   -2.5940 N   0  0  0  0  0  0  0  0  0  0  0  0
   25.1120  -10.6930   -3.1840 C   0  0  0  0  0  0  0  0  0  0  0  0
   24.9810  -10.9910   -4.6020 C   0  0  0  0  0  0  0  0  0  0  0  0
   24.0920  -10.4910   -2.2170 C   0  0  0  0  0  0  0  0  0  0  0  0
   22.6780  -10.5120   -2.3060 C   0  0  0  0  0  0  0  0  0  0  0  0
   18.0470  -12.0700   -3.2390 O   0  0  0  0  0  0  0  0  0  0  0  0
   18.7400  -13.2680   -3.3750 C   0  0  0  0  0  0  0  0  0  0  0  0
   18.1850  -14.3740   -2.4630 C   0  0  1  0  0  0  0  0  0  0  0  0
   16.8830  -14.8820   -3.0290 N   0  0  0  0  0  0  0  0  0  0  0  0
   16.1560  -14.1370   -3.0200 H   0  0  0  0  0  0  0  0  0  0  0  0
   16.4910  -15.6700   -2.5290 H   0  0  0  0  0  0  0  0  0  0  0  0
   16.9930  -15.1280   -4.0390 H   0  0  0  0  0  0  0  0  0  0  0  0
   19.1680  -15.5460   -2.2080 C   0  0  0  0  0  0  0  0  0  0  0  0
   20.5560  -15.1170   -1.8080 C   0  0  0  0  0  0  0  0  0  0  0  0
   20.7410  -14.3560   -0.6500 C   0  0  0  0  0  0  0  0  0  0  0  0
   22.0240  -13.9240   -0.2830 C   0  0  0  0  0  0  0  0  0  0  0  0
   23.1320  -14.2570   -1.0500 C   0  0  0  0  0  0  0  0  0  0  0  0
   24.8510  -13.7160   -0.5490 Br  0  0  0  0  0  0  0  0  0  0  0  0
   22.9450  -15.0250   -2.1940 C   0  0  0  0  0  0  0  0  0  0  0  0
   21.6550  -15.4570   -2.5640 C   0  0  0  0  0  0  0  0  0  0  0  0
  1  2  2  0  0  0  0
  1  6  1  0  0  0  0
  2  3  1  0  0  0  0
  3  7  1  0  0  0  0
  3  4  2  0  0  0  0
  5  4  1  0  0  0  0
  6  5  2  0  0  0  0
  7  8  2  0  0  0  0
  8  9  1  0  0  0  0
 10  9  2  0  0  0  0
 11 10  1  0  0  0  0
 11 12  1  0  0  0  0
 13 11  1  0  0  0  0
 14 13  2  0  0  0  0
 14 16  1  0  0  0  0
 15 14  1  0  0  0  0
 16 10  1  0  0  0  0
 17 16  2  0  0  0  0
 17  7  1  0  0  0  0
 18  1  1  0  0  0  0
 19 18  1  0  0  0  0
 20 19  1  6  0  0  0
 20 25  1  0  0  0  0
 21 22  1  0  0  0  0
 21 23  1  0  0  0  0
 21 20  1  0  0  0  0
 24 21  1  0  0  0  0
 25 26  1  0  0  0  0
 26 27  2  0  0  0  0
 27 28  1  0  0  0  0
 29 30  1  0  0  0  0
 29 28  2  0  0  0  0
 31 29  1  0  0  0  0
 32 31  2  0  0  0  0
 32 26  1  0  0  0  0
M  END
>  <minimizedAffinity>
-8.7263546

$$$$

 OpenBabel12271915473D

 32 35  0  0  1  0  0  0  0  0999 V2000
   22.0490  -12.9400   -0.7520 C   0  0  0  0  0  0  0  0  0  0  0  0
   20.7510  -13.2750   -1.2230 C   0  0  0  0  0  0  0  0  0  0  0  0
   20.4700  -14.5380   -1.6860 C   0  0  0  0  0  0  0  0  0  0  0  0
   21.5330  -15.4340   -1.6790 C   0  0  0  0  0  0  0  0  0  0  0  0
   22.7700  -15.1770   -1.2620 N   0  0  0  0  0  0  0  0  0  0  0  0
   23.0270  -13.9520   -0.7640 C   0  0  0  0  0  0  0  0  0  0  0  0
   19.1050  -14.8340   -2.1760 C   0  0  0  0  0  0  0  0  0  0  0  0
   17.9650  -14.1690   -1.8000 C   0  0  0  0  0  0  0  0  0  0  0  0
   16.6750  -14.4640   -2.2760 C   0  0  0  0  0  0  0  0  0  0  0  0
   16.5720  -15.5320   -3.1860 C   0  0  0  0  0  0  0  0  0  0  0  0
   15.4870  -16.1050   -3.8230 N   0  0  0  0  0  0  0  0  0  0  0  0
   14.5300  -15.8720   -3.7710 H   0  0  0  0  0  0  0  0  0  0  0  0
   15.8450  -17.1120   -4.6100 N   0  0  0  0  0  0  0  0  0  0  0  0
   17.1850  -17.2120   -4.4880 C   0  0  0  0  0  0  0  0  0  0  0  0
   17.9450  -18.2260   -5.2030 C   0  0  0  0  0  0  0  0  0  0  0  0
   17.6520  -16.2130   -3.5930 C   0  0  0  0  0  0  0  0  0  0  0  0
   18.9480  -15.8860   -3.1240 C   0  0  0  0  0  0  0  0  0  0  0  0
   22.1600  -11.6300   -0.4370 O   0  0  0  0  0  0  0  0  0  0  0  0
   21.8940  -10.6630   -1.4010 C   0  0  0  0  0  0  0  0  0  0  0  0
   20.6360   -9.8410   -1.0760 C   0  0  1  0  0  0  0  0  0  0  0  0
   20.9170   -8.3800   -1.3200 N   0  0  0  0  0  0  0  0  0  0  0  0
   21.6460   -8.0250   -0.6670 H   0  0  0  0  0  0  0  0  0  0  0  0
   20.1130   -7.7760   -1.2060 H   0  0  0  0  0  0  0  0  0  0  0  0
   21.3280   -8.2390   -2.2700 H   0  0  0  0  0  0  0  0  0  0  0  0
   19.3640  -10.2910   -1.8390 C   0  0  0  0  0  0  0  0  0  0  0  0
   19.1880   -9.6460   -3.1890 C   0  0  0  0  0  0  0  0  0  0  0  0
   18.1080   -8.7860   -3.4130 C   0  0  0  0  0  0  0  0  0  0  0  0
   17.9170   -8.2040   -4.6750 C   0  0  0  0  0  0  0  0  0  0  0  0
   18.8010   -8.4530   -5.7140 C   0  0  0  0  0  0  0  0  0  0  0  0
   18.5730   -7.6510   -7.3890 Br  0  0  0  0  0  0  0  0  0  0  0  0
   19.8820   -9.2970   -5.4830 C   0  0  0  0  0  0  0  0  0  0  0  0
   20.0730   -9.8860   -4.2160 C   0  0  0  0  0  0  0  0  0  0  0  0
  1 18  1  0  0  0  0
  2  1  2  0  0  0  0
  3  4  2  0  0  0  0
  3  2  1  0  0  0  0
  4  5  1  0  0  0  0
  5  6  2  0  0  0  0
  6  1  1  0  0  0  0
  7  8  1  0  0  0  0
  7  3  1  0  0  0  0
  9  8  2  0  0  0  0
 10  9  1  0  0  0  0
 11 12  1  0  0  0  0
 11 10  1  0  0  0  0
 13 14  2  0  0  0  0
 13 11  1  0  0  0  0
 14 16  1  0  0  0  0
 15 14  1  0  0  0  0
 16 10  2  0  0  0  0
 16 17  1  0  0  0  0
 17  7  2  0  0  0  0
 19 20  1  0  0  0  0
 19 18  1  0  0  0  0
 20 25  1  6  0  0  0
 21 23  1  0  0  0  0
 21 20  1  0  0  0  0
 21 22  1  0  0  0  0
 24 21  1  0  0  0  0
 26 25  1  0  0  0  0
 27 26  1  0  0  0  0
 28 27  2  0  0  0  0
 29 31  2  0  0  0  0
 29 28  1  0  0  0  0
 30 29  1  0  0  0  0
 31 32  1  0  0  0  0
 32 26  2  0  0  0  0
M  END
>  <minimizedAffinity>
-8.46555519

$$$$

 OpenBabel12271915473D

 32 35  0  0  1  0  0  0  0  0999 V2000
   24.7590  -12.0160   -0.1000 C   0  0  0  0  0  0  0  0  0  0  0  0
   23.4300  -12.3800   -0.4500 C   0  0  0  0  0  0  0  0  0  0  0  0
   23.1250  -13.6650   -0.8290 C   0  0  0  0  0  0  0  0  0  0  0  0
   24.1920  -14.5530   -0.8660 C   0  0  0  0  0  0  0  0  0  0  0  0
   25.4570  -14.2710   -0.5610 N   0  0  0  0  0  0  0  0  0  0  0  0
   25.7410  -13.0230   -0.1430 C   0  0  0  0  0  0  0  0  0  0  0  0
   21.7280  -13.9900   -1.1950 C   0  0  0  0  0  0  0  0  0  0  0  0
   21.3080  -15.1680   -1.7590 C   0  0  0  0  0  0  0  0  0  0  0  0
   19.9760  -15.4600   -2.1010 C   0  0  0  0  0  0  0  0  0  0  0  0
   19.0300  -14.4480   -1.8540 C   0  0  0  0  0  0  0  0  0  0  0  0
   17.6680  -14.3770   -2.0840 N   0  0  0  0  0  0  0  0  0  0  0  0
   17.0590  -15.0450   -2.4780 H   0  0  0  0  0  0  0  0  0  0  0  0
   17.1570  -13.2160   -1.6950 N   0  0  0  0  0  0  0  0  0  0  0  0
   18.1950  -12.5050   -1.2070 C   0  0  0  0  0  0  0  0  0  0  0  0
   18.0230  -11.1550   -0.6910 C   0  0  0  0  0  0  0  0  0  0  0  0
   19.3810  -13.2800   -1.3000 C   0  0  0  0  0  0  0  0  0  0  0  0
   20.7240  -13.0120   -0.9370 C   0  0  0  0  0  0  0  0  0  0  0  0
   24.8820  -10.6920    0.1440 O   0  0  0  0  0  0  0  0  0  0  0  0
   24.1530   -9.7800   -0.6110 C   0  0  0  0  0  0  0  0  0  0  0  0
   24.8990   -9.3430   -1.8830 C   0  0  1  0  0  0  0  0  0  0  0  0
   26.3800   -9.5570   -1.6910 N   0  0  0  0  0  0  0  0  0  0  0  0
   26.7520   -8.9420   -0.9380 H   0  0  0  0  0  0  0  0  0  0  0  0
   26.9380   -9.3680   -2.5150 H   0  0  0  0  0  0  0  0  0  0  0  0
   26.5700  -10.5270   -1.3540 H   0  0  0  0  0  0  0  0  0  0  0  0
   24.4080  -10.0330   -3.1810 C   0  0  0  0  0  0  0  0  0  0  0  0
   22.9520   -9.8040   -3.4940 C   0  0  0  0  0  0  0  0  0  0  0  0
   22.4820   -8.5030   -3.6990 C   0  0  0  0  0  0  0  0  0  0  0  0
   21.1230   -8.2740   -3.9600 C   0  0  0  0  0  0  0  0  0  0  0  0
   20.2260   -9.3290   -4.0370 C   0  0  0  0  0  0  0  0  0  0  0  0
   18.4190   -9.0360   -4.4210 Br  0  0  0  0  0  0  0  0  0  0  0  0
   20.7000  -10.6230   -3.8470 C   0  0  0  0  0  0  0  0  0  0  0  0
   22.0650  -10.8540   -3.5810 C   0  0  0  0  0  0  0  0  0  0  0  0
  1 18  1  0  0  0  0
  2  1  2  0  0  0  0
  3  2  1  0  0  0  0
  4  3  2  0  0  0  0
  4  5  1  0  0  0  0
  5  6  2  0  0  0  0
  6  1  1  0  0  0  0
  7 17  1  0  0  0  0
  7  3  1  0  0  0  0
  8  7  2  0  0  0  0
  9 10  2  0  0  0  0
  9  8  1  0  0  0  0
 10 16  1  0  0  0  0
 11 10  1  0  0  0  0
 11 13  1  0  0  0  0
 12 11  1  0  0  0  0
 13 14  2  0  0  0  0
 14 15  1  0  0  0  0
 16 14  1  0  0  0  0
 16 17  2  0  0  0  0
 19 18  1  0  0  0  0
 20 25  1  6  0  0  0
 20 21  1  0  0  0  0
 20 19  1  0  0  0  0
 21 24  1  0  0  0  0
 21 22  1  0  0  0  0
 23 21  1  0  0  0  0
 26 25  1  0  0  0  0
 27 26  2  0  0  0  0
 28 27  1  0  0  0  0
 29 28  2  0  0  0  0
 29 31  1  0  0  0  0
 30 29  1  0  0  0  0
 31 32  2  0  0  0  0
 32 26  1  0  0  0  0
M  END
>  <minimizedAffinity>
-8.34972286

$$$$
