
 OpenBabel12271915493D

 32 35  0  0  1  0  0  0  0  0999 V2000
   22.1760  -13.0280   -0.9120 C   0  0  0  0  0  0  0  0  0  0  0  0
   20.9080  -13.2850   -1.3930 C   0  0  0  0  0  0  0  0  0  0  0  0
   20.5060  -14.6200   -1.7570 C   0  0  0  0  0  0  0  0  0  0  0  0
   21.4930  -15.5640   -1.5740 C   0  0  0  0  0  0  0  0  0  0  0  0
   22.7410  -15.3090   -1.1140 N   0  0  0  0  0  0  0  0  0  0  0  0
   23.0500  -13.9840   -0.7940 C   0  0  0  0  0  0  0  0  0  0  0  0
   19.1950  -14.8890   -2.2340 C   0  0  0  0  0  0  0  0  0  0  0  0
   18.1160  -14.1210   -1.8470 C   0  0  0  0  0  0  0  0  0  0  0  0
   16.8130  -14.3710   -2.3090 C   0  0  0  0  0  0  0  0  0  0  0  0
   16.6260  -15.4220   -3.1740 C   0  0  0  0  0  0  0  0  0  0  0  0
   15.4810  -15.9030   -3.7850 N   0  0  0  0  0  0  0  0  0  0  0  0
   14.5290  -15.5630   -3.7090 H   0  0  0  0  0  0  0  0  0  0  0  0
   15.7760  -16.9920   -4.5800 N   0  0  0  0  0  0  0  0  0  0  0  0
   17.1090  -17.1500   -4.4380 C   0  0  0  0  0  0  0  0  0  0  0  0
   17.8960  -18.2420   -5.1270 C   0  0  0  0  0  0  0  0  0  0  0  0
   17.6680  -16.2050   -3.5790 C   0  0  0  0  0  0  0  0  0  0  0  0
   18.9490  -15.9470   -3.1150 C   0  0  0  0  0  0  0  0  0  0  0  0
   22.2350  -11.7890   -0.5960 O   0  0  0  0  0  0  0  0  0  0  0  0
   22.5530  -10.2920   -0.6280 C   0  0  0  0  0  0  0  0  0  0  0  0
   23.6360   -9.9670   -1.5540 C   0  0  1  0  0  0  0  0  0  0  0  0
   23.0710   -9.3320   -2.8450 N   0  0  0  0  0  0  0  0  0  0  0  0
   23.6370   -9.6010   -3.6190 H   0  0  0  0  0  0  0  0  0  0  0  0
   23.0020   -8.3220   -2.7250 H   0  0  0  0  0  0  0  0  0  0  0  0
   22.1430   -9.6790   -2.9690 H   0  0  0  0  0  0  0  0  0  0  0  0
   24.6550   -9.0760   -0.8340 C   0  0  0  0  0  0  0  0  0  0  0  0
   25.8750   -9.7970   -0.4140 C   0  0  0  0  0  0  0  0  0  0  0  0
   25.8660  -11.1800   -0.2760 C   0  0  0  0  0  0  0  0  0  0  0  0
   27.0500  -11.8250    0.1540 C   0  0  0  0  0  0  0  0  0  0  0  0
   28.1970  -11.1060    0.4310 C   0  0  0  0  0  0  0  0  0  0  0  0
   29.7710  -11.9660    1.0050 Br  0  0  0  0  0  0  0  0  0  0  0  0
   28.1960   -9.7220    0.2860 C   0  0  0  0  0  0  0  0  0  0  0  0
   27.0410   -9.0860   -0.1320 C   0  0  0  0  0  0  0  0  0  0  0  0
  1  6  1  0  0  0  0
  1 18  1  0  0  0  0
  2  1  2  0  0  0  0
  3  4  2  0  0  0  0
  3  2  1  0  0  0  0
  4  5  1  0  0  0  0
  5  6  2  0  0  0  0
  7  8  1  0  0  0  0
  7  3  1  0  0  0  0
  9  8  2  0  0  0  0
 10  9  1  0  0  0  0
 11 12  1  0  0  0  0
 11 10  1  0  0  0  0
 13 14  2  0  0  0  0
 13 11  1  0  0  0  0
 14 16  1  0  0  0  0
 15 14  1  0  0  0  0
 16 10  2  0  0  0  0
 16 17  1  0  0  0  0
 17  7  2  0  0  0  0
 19 18  1  0  0  0  0
 20 25  1  1  0  0  0
 20 19  1  0  0  0  0
 21 23  1  0  0  0  0
 21 20  1  0  0  0  0
 22 21  1  0  0  0  0
 24 21  1  0  0  0  0
 25 26  1  0  0  0  0
 26 27  2  0  0  0  0
 26 32  1  0  0  0  0
 27 28  1  0  0  0  0
 28 29  2  0  0  0  0
 29 30  1  0  0  0  0
 31 29  1  0  0  0  0
 32 31  2  0  0  0  0
M  END
>  <minimizedAffinity>
-9.39666176

$$$$

 OpenBabel12271915493D

 32 35  0  0  1  0  0  0  0  0999 V2000
   22.8680  -13.3340   -2.0530 C   0  0  0  0  0  0  0  0  0  0  0  0
   21.5680  -13.5390   -2.4650 C   0  0  0  0  0  0  0  0  0  0  0  0
   20.7860  -14.6340   -1.9480 C   0  0  0  0  0  0  0  0  0  0  0  0
   21.4620  -15.4120   -1.0330 C   0  0  0  0  0  0  0  0  0  0  0  0
   22.7430  -15.2170   -0.6380 N   0  0  0  0  0  0  0  0  0  0  0  0
   23.4310  -14.1370   -1.1980 C   0  0  0  0  0  0  0  0  0  0  0  0
   19.4410  -14.8340   -2.3570 C   0  0  0  0  0  0  0  0  0  0  0  0
   18.4340  -13.9730   -1.9700 C   0  0  0  0  0  0  0  0  0  0  0  0
   17.0980  -14.1550   -2.3660 C   0  0  0  0  0  0  0  0  0  0  0  0
   16.8030  -15.2340   -3.1650 C   0  0  0  0  0  0  0  0  0  0  0  0
   15.6030  -15.6640   -3.7030 N   0  0  0  0  0  0  0  0  0  0  0  0
   14.6810  -15.2550   -3.6080 H   0  0  0  0  0  0  0  0  0  0  0  0
   15.7890  -16.8100   -4.4490 N   0  0  0  0  0  0  0  0  0  0  0  0
   17.1130  -17.0540   -4.3510 C   0  0  0  0  0  0  0  0  0  0  0  0
   17.7940  -18.2320   -5.0100 C   0  0  0  0  0  0  0  0  0  0  0  0
   17.7710  -16.1080   -3.5670 C   0  0  0  0  0  0  0  0  0  0  0  0
   19.0850  -15.9160   -3.1690 C   0  0  0  0  0  0  0  0  0  0  0  0
   23.2930  -12.2590   -2.6040 O   0  0  0  0  0  0  0  0  0  0  0  0
   24.0500  -11.2930   -3.5190 C   0  0  0  0  0  0  0  0  0  0  0  0
   23.3530  -10.0200   -3.6920 C   0  0  1  0  0  0  0  0  0  0  0  0
   24.2030   -9.0490   -4.5420 N   0  0  0  0  0  0  0  0  0  0  0  0
   24.0470   -8.1170   -4.2310 H   0  0  0  0  0  0  0  0  0  0  0  0
   23.9920   -9.1870   -5.5300 H   0  0  0  0  0  0  0  0  0  0  0  0
   25.1620   -9.2940   -4.4080 H   0  0  0  0  0  0  0  0  0  0  0  0
   21.9640  -10.2910   -4.2850 C   0  0  0  0  0  0  0  0  0  0  0  0
   20.8650  -10.1190   -3.3120 C   0  0  0  0  0  0  0  0  0  0  0  0
   21.1030   -9.5370   -2.0720 C   0  0  0  0  0  0  0  0  0  0  0  0
   20.0250   -9.4170   -1.1630 C   0  0  0  0  0  0  0  0  0  0  0  0
   18.7590   -9.8620   -1.4910 C   0  0  0  0  0  0  0  0  0  0  0  0
   17.3260   -9.7030   -0.2790 Br  0  0  0  0  0  0  0  0  0  0  0  0
   18.5300  -10.4400   -2.7360 C   0  0  0  0  0  0  0  0  0  0  0  0
   19.5800  -10.5610   -3.6290 C   0  0  0  0  0  0  0  0  0  0  0  0
  1  6  1  0  0  0  0
  2  1  2  0  0  0  0
  2  3  1  0  0  0  0
  3  4  2  0  0  0  0
  4  5  1  0  0  0  0
  6  5  2  0  0  0  0
  7  8  2  0  0  0  0
  7  3  1  0  0  0  0
  9  8  1  0  0  0  0
 10  9  2  0  0  0  0
 11 12  1  0  0  0  0
 11 10  1  0  0  0  0
 13 14  2  0  0  0  0
 13 11  1  0  0  0  0
 14 16  1  0  0  0  0
 15 14  1  0  0  0  0
 16 17  2  0  0  0  0
 16 10  1  0  0  0  0
 17  7  1  0  0  0  0
 18  1  1  0  0  0  0
 19 18  1  0  0  0  0
 20 25  1  6  0  0  0
 20 19  1  0  0  0  0
 21 24  1  0  0  0  0
 21 22  1  0  0  0  0
 21 20  1  0  0  0  0
 23 21  1  0  0  0  0
 25 26  1  0  0  0  0
 26 27  1  0  0  0  0
 27 28  2  0  0  0  0
 29 28  1  0  0  0  0
 29 30  1  0  0  0  0
 31 29  2  0  0  0  0
 32 26  2  0  0  0  0
 32 31  1  0  0  0  0
M  END
>  <minimizedAffinity>
-9.25890541

$$$$

 OpenBabel12271915493D

 32 35  0  0  1  0  0  0  0  0999 V2000
   22.5480  -13.1460   -1.0100 C   0  0  0  0  0  0  0  0  0  0  0  0
   21.2520  -13.3210   -1.4480 C   0  0  0  0  0  0  0  0  0  0  0  0
   20.7750  -14.6150   -1.8670 C   0  0  0  0  0  0  0  0  0  0  0  0
   21.7250  -15.6100   -1.7760 C   0  0  0  0  0  0  0  0  0  0  0  0
   23.0010  -15.4350   -1.3570 N   0  0  0  0  0  0  0  0  0  0  0  0
   23.3820  -14.1430   -0.9800 C   0  0  0  0  0  0  0  0  0  0  0  0
   19.4360  -14.8010   -2.3000 C   0  0  0  0  0  0  0  0  0  0  0  0
   18.4350  -13.9190   -1.9460 C   0  0  0  0  0  0  0  0  0  0  0  0
   17.1050  -14.0860   -2.3670 C   0  0  0  0  0  0  0  0  0  0  0  0
   16.8090  -15.1720   -3.1560 C   0  0  0  0  0  0  0  0  0  0  0  0
   15.6140  -15.5920   -3.7120 N   0  0  0  0  0  0  0  0  0  0  0  0
   14.6960  -15.1660   -3.6430 H   0  0  0  0  0  0  0  0  0  0  0  0
   15.7960  -16.7510   -4.4380 N   0  0  0  0  0  0  0  0  0  0  0  0
   17.1140  -17.0140   -4.3090 C   0  0  0  0  0  0  0  0  0  0  0  0
   17.7890  -18.2120   -4.9360 C   0  0  0  0  0  0  0  0  0  0  0  0
   17.7710  -16.0670   -3.5260 C   0  0  0  0  0  0  0  0  0  0  0  0
   19.0800  -15.8900   -3.1030 C   0  0  0  0  0  0  0  0  0  0  0  0
   22.6760  -11.9300   -0.6300 O   0  0  0  0  0  0  0  0  0  0  0  0
   23.2830  -10.6200   -0.1210 C   0  0  0  0  0  0  0  0  0  0  0  0
   22.5730   -9.4420   -0.6160 C   0  0  1  0  0  0  0  0  0  0  0  0
   23.4940   -8.2020   -0.5830 N   0  0  0  0  0  0  0  0  0  0  0  0
   22.9490   -7.3930   -0.3840 H   0  0  0  0  0  0  0  0  0  0  0  0
   24.0110   -8.1380   -1.4590 H   0  0  0  0  0  0  0  0  0  0  0  0
   24.1640   -8.3450    0.1450 H   0  0  0  0  0  0  0  0  0  0  0  0
   22.0160   -9.7480   -2.0120 C   0  0  0  0  0  0  0  0  0  0  0  0
   20.5390   -9.7160   -2.0760 C   0  0  0  0  0  0  0  0  0  0  0  0
   19.8000   -9.1220   -1.0590 C   0  0  0  0  0  0  0  0  0  0  0  0
   18.3880   -9.1400   -1.1510 C   0  0  0  0  0  0  0  0  0  0  0  0
   17.7470   -9.7290   -2.2240 C   0  0  0  0  0  0  0  0  0  0  0  0
   15.8670   -9.7520   -2.3430 Br  0  0  0  0  0  0  0  0  0  0  0  0
   18.4960  -10.3170   -3.2380 C   0  0  0  0  0  0  0  0  0  0  0  0
   19.8770  -10.3050   -3.1540 C   0  0  0  0  0  0  0  0  0  0  0  0
  1  6  1  0  0  0  0
  1 18  1  0  0  0  0
  2  1  2  0  0  0  0
  3  4  2  0  0  0  0
  3  2  1  0  0  0  0
  4  5  1  0  0  0  0
  5  6  2  0  0  0  0
  7  8  1  0  0  0  0
  7  3  1  0  0  0  0
  9  8  2  0  0  0  0
 10  9  1  0  0  0  0
 11 12  1  0  0  0  0
 11 10  1  0  0  0  0
 13 14  2  0  0  0  0
 13 11  1  0  0  0  0
 14 16  1  0  0  0  0
 15 14  1  0  0  0  0
 16 10  2  0  0  0  0
 16 17  1  0  0  0  0
 17  7  2  0  0  0  0
 18 19  1  0  0  0  0
 20 25  1  6  0  0  0
 20 21  1  0  0  0  0
 20 19  1  0  0  0  0
 21 22  1  0  0  0  0
 21 24  1  0  0  0  0
 23 21  1  0  0  0  0
 26 25  1  0  0  0  0
 26 27  2  0  0  0  0
 28 27  1  0  0  0  0
 29 28  2  0  0  0  0
 30 29  1  0  0  0  0
 31 32  2  0  0  0  0
 31 29  1  0  0  0  0
 32 26  1  0  0  0  0
M  END
>  <minimizedAffinity>
-9.13607121

$$$$

 OpenBabel12271915493D

 32 35  0  0  1  0  0  0  0  0999 V2000
   18.4340  -11.2970   -2.4170 C   0  0  0  0  0  0  0  0  0  0  0  0
   19.8050  -11.2490   -2.2720 C   0  0  0  0  0  0  0  0  0  0  0  0
   20.4310  -10.2600   -1.4310 C   0  0  0  0  0  0  0  0  0  0  0  0
   19.5360   -9.4110   -0.8170 C   0  0  0  0  0  0  0  0  0  0  0  0
   18.1910   -9.4500   -0.9700 N   0  0  0  0  0  0  0  0  0  0  0  0
   17.6690  -10.4360   -1.8130 C   0  0  0  0  0  0  0  0  0  0  0  0
   21.8410  -10.2210   -1.2650 C   0  0  0  0  0  0  0  0  0  0  0  0
   22.4150   -9.9080   -0.0500 C   0  0  0  0  0  0  0  0  0  0  0  0
   23.8080   -9.8670    0.1330 C   0  0  0  0  0  0  0  0  0  0  0  0
   24.6090  -10.1500   -0.9460 C   0  0  0  0  0  0  0  0  0  0  0  0
   25.9870  -10.1870   -1.0700 N   0  0  0  0  0  0  0  0  0  0  0  0
   26.6930  -10.0070   -0.3660 H   0  0  0  0  0  0  0  0  0  0  0  0
   26.3500  -10.5210   -2.3590 N   0  0  0  0  0  0  0  0  0  0  0  0
   25.1730  -10.6850   -2.9990 C   0  0  0  0  0  0  0  0  0  0  0  0
   25.0640  -11.0540   -4.4610 C   0  0  0  0  0  0  0  0  0  0  0  0
   24.0780  -10.4630   -2.1650 C   0  0  0  0  0  0  0  0  0  0  0  0
   22.7030  -10.5000   -2.3310 C   0  0  0  0  0  0  0  0  0  0  0  0
   18.1490  -12.3100   -3.1470 O   0  0  0  0  0  0  0  0  0  0  0  0
   17.7070  -13.7070   -3.5890 C   0  0  0  0  0  0  0  0  0  0  0  0
   17.5330  -14.6240   -2.4640 C   0  0  1  0  0  0  0  0  0  0  0  0
   16.0930  -15.1840   -2.4420 N   0  0  0  0  0  0  0  0  0  0  0  0
   15.8110  -15.3270   -1.4980 H   0  0  0  0  0  0  0  0  0  0  0  0
   16.0470  -16.0290   -3.0110 H   0  0  0  0  0  0  0  0  0  0  0  0
   15.5000  -14.5050   -2.8720 H   0  0  0  0  0  0  0  0  0  0  0  0
   18.6080  -15.7150   -2.5420 C   0  0  0  0  0  0  0  0  0  0  0  0
   19.9360  -15.2670   -2.0730 C   0  0  0  0  0  0  0  0  0  0  0  0
   20.0740  -14.6320   -0.8440 C   0  0  0  0  0  0  0  0  0  0  0  0
   21.3610  -14.1970   -0.4480 C   0  0  0  0  0  0  0  0  0  0  0  0
   22.4640  -14.3960   -1.2560 C   0  0  0  0  0  0  0  0  0  0  0  0
   24.1770  -13.8150   -0.7280 Br  0  0  0  0  0  0  0  0  0  0  0  0
   22.3160  -15.0360   -2.4830 C   0  0  0  0  0  0  0  0  0  0  0  0
   21.0600  -15.4620   -2.8760 C   0  0  0  0  0  0  0  0  0  0  0  0
  1  2  2  0  0  0  0
  1  6  1  0  0  0  0
  2  3  1  0  0  0  0
  3  7  1  0  0  0  0
  3  4  2  0  0  0  0
  5  4  1  0  0  0  0
  6  5  2  0  0  0  0
  7  8  2  0  0  0  0
  8  9  1  0  0  0  0
 10  9  2  0  0  0  0
 11 10  1  0  0  0  0
 11 12  1  0  0  0  0
 13 11  1  0  0  0  0
 14 13  2  0  0  0  0
 14 16  1  0  0  0  0
 15 14  1  0  0  0  0
 16 10  1  0  0  0  0
 17 16  2  0  0  0  0
 17  7  1  0  0  0  0
 18  1  1  0  0  0  0
 19 18  1  0  0  0  0
 20 19  1  6  0  0  0
 20 21  1  0  0  0  0
 21 22  1  0  0  0  0
 23 21  1  0  0  0  0
 24 21  1  0  0  0  0
 25 20  1  0  0  0  0
 25 26  1  0  0  0  0
 26 27  2  0  0  0  0
 27 28  1  0  0  0  0
 29 30  1  0  0  0  0
 29 28  2  0  0  0  0
 31 29  1  0  0  0  0
 32 31  2  0  0  0  0
 32 26  1  0  0  0  0
M  END
>  <minimizedAffinity>
-9.12116909

$$$$

 OpenBabel12271915493D

 32 35  0  0  1  0  0  0  0  0999 V2000
   19.8990  -11.4750   -2.5990 C   0  0  0  0  0  0  0  0  0  0  0  0
   21.2390  -11.5190   -2.9230 C   0  0  0  0  0  0  0  0  0  0  0  0
   22.1890  -10.6450   -2.2850 C   0  0  0  0  0  0  0  0  0  0  0  0
   21.6250   -9.8010   -1.3530 C   0  0  0  0  0  0  0  0  0  0  0  0
   20.3070   -9.7490   -1.0440 N   0  0  0  0  0  0  0  0  0  0  0  0
   19.4540  -10.6270   -1.7190 C   0  0  0  0  0  0  0  0  0  0  0  0
   23.5720  -10.7020   -2.6040 C   0  0  0  0  0  0  0  0  0  0  0  0
   24.0100  -11.1610   -3.8300 C   0  0  0  0  0  0  0  0  0  0  0  0
   25.3740  -11.2240   -4.1640 C   0  0  0  0  0  0  0  0  0  0  0  0
   26.2880  -10.8110   -3.2240 C   0  0  0  0  0  0  0  0  0  0  0  0
   27.6700  -10.7580   -3.2630 N   0  0  0  0  0  0  0  0  0  0  0  0
   28.2950  -11.0230   -4.0160 H   0  0  0  0  0  0  0  0  0  0  0  0
   28.1710  -10.2700   -2.0740 N   0  0  0  0  0  0  0  0  0  0  0  0
   27.0710  -10.0300   -1.3290 C   0  0  0  0  0  0  0  0  0  0  0  0
   27.1230   -9.4850    0.0800 C   0  0  0  0  0  0  0  0  0  0  0  0
   25.8930  -10.3520   -2.0010 C   0  0  0  0  0  0  0  0  0  0  0  0
   24.5450  -10.2960   -1.6850 C   0  0  0  0  0  0  0  0  0  0  0  0
   19.3030  -12.4030   -3.2500 O   0  0  0  0  0  0  0  0  0  0  0  0
   18.4440  -13.6240   -3.5860 C   0  0  0  0  0  0  0  0  0  0  0  0
   18.1790  -14.4630   -2.4190 C   0  0  1  0  0  0  0  0  0  0  0  0
   16.7200  -14.9740   -2.4400 N   0  0  0  0  0  0  0  0  0  0  0  0
   16.3850  -15.0480   -1.5060 H   0  0  0  0  0  0  0  0  0  0  0  0
   16.6730  -15.8490   -2.9590 H   0  0  0  0  0  0  0  0  0  0  0  0
   16.1750  -14.3030   -2.9420 H   0  0  0  0  0  0  0  0  0  0  0  0
   19.2160  -15.5920   -2.3740 C   0  0  0  0  0  0  0  0  0  0  0  0
   20.5450  -15.1520   -1.8970 C   0  0  0  0  0  0  0  0  0  0  0  0
   20.6750  -14.4880   -0.6830 C   0  0  0  0  0  0  0  0  0  0  0  0
   21.9630  -14.0620   -0.2800 C   0  0  0  0  0  0  0  0  0  0  0  0
   23.0740  -14.2980   -1.0670 C   0  0  0  0  0  0  0  0  0  0  0  0
   24.7880  -13.7290   -0.5300 Br  0  0  0  0  0  0  0  0  0  0  0  0
   22.9330  -14.9670   -2.2790 C   0  0  0  0  0  0  0  0  0  0  0  0
   21.6760  -15.3840   -2.6790 C   0  0  0  0  0  0  0  0  0  0  0  0
  1  6  1  0  0  0  0
  2  1  2  0  0  0  0
  2  3  1  0  0  0  0
  3  4  2  0  0  0  0
  4  5  1  0  0  0  0
  6  5  2  0  0  0  0
  7  3  1  0  0  0  0
  7 17  2  0  0  0  0
  8  7  1  0  0  0  0
  9  8  2  0  0  0  0
  9 10  1  0  0  0  0
 10 16  2  0  0  0  0
 11 10  1  0  0  0  0
 11 13  1  0  0  0  0
 12 11  1  0  0  0  0
 13 14  2  0  0  0  0
 14 15  1  0  0  0  0
 16 17  1  0  0  0  0
 16 14  1  0  0  0  0
 18  1  1  0  0  0  0
 19 18  1  0  0  0  0
 20 19  1  6  0  0  0
 20 25  1  0  0  0  0
 21 20  1  0  0  0  0
 21 22  1  0  0  0  0
 23 21  1  0  0  0  0
 24 21  1  0  0  0  0
 25 26  1  0  0  0  0
 26 27  2  0  0  0  0
 27 28  1  0  0  0  0
 29 30  1  0  0  0  0
 29 28  2  0  0  0  0
 31 29  1  0  0  0  0
 32 31  2  0  0  0  0
 32 26  1  0  0  0  0
M  END
>  <minimizedAffinity>
-9.04422092

$$$$

 OpenBabel12271915493D

 32 35  0  0  1  0  0  0  0  0999 V2000
   22.0060  -12.7540   -0.7590 C   0  0  0  0  0  0  0  0  0  0  0  0
   23.0170  -11.8390   -0.5550 C   0  0  0  0  0  0  0  0  0  0  0  0
   24.4010  -12.2430   -0.5560 C   0  0  0  0  0  0  0  0  0  0  0  0
   24.5820  -13.5900   -0.7790 C   0  0  0  0  0  0  0  0  0  0  0  0
   23.5880  -14.4910   -0.9670 N   0  0  0  0  0  0  0  0  0  0  0  0
   22.2740  -14.0140   -0.9400 C   0  0  0  0  0  0  0  0  0  0  0  0
   25.4430  -11.2980   -0.3650 C   0  0  0  0  0  0  0  0  0  0  0  0
   25.2400   -9.9480   -0.5700 C   0  0  0  0  0  0  0  0  0  0  0  0
   26.2590   -8.9990   -0.3840 C   0  0  0  0  0  0  0  0  0  0  0  0
   27.4950   -9.4490    0.0140 C   0  0  0  0  0  0  0  0  0  0  0  0
   28.6710   -8.7670    0.2710 N   0  0  0  0  0  0  0  0  0  0  0  0
   28.8530   -7.7710    0.2140 H   0  0  0  0  0  0  0  0  0  0  0  0
   29.6690   -9.6420    0.6470 N   0  0  0  0  0  0  0  0  0  0  0  0
   29.0730  -10.8530    0.6120 C   0  0  0  0  0  0  0  0  0  0  0  0
   29.7870  -12.1430    0.9450 C   0  0  0  0  0  0  0  0  0  0  0  0
   27.7360  -10.7760    0.2250 C   0  0  0  0  0  0  0  0  0  0  0  0
   26.7210  -11.7020    0.0380 C   0  0  0  0  0  0  0  0  0  0  0  0
   20.8960  -12.1170   -0.7870 O   0  0  0  0  0  0  0  0  0  0  0  0
   19.7700  -11.1710   -1.2130 C   0  0  0  0  0  0  0  0  0  0  0  0
   18.6400  -11.8770   -1.8130 C   0  0  1  0  0  0  0  0  0  0  0  0
   18.8480  -12.0370   -3.3360 N   0  0  0  0  0  0  0  0  0  0  0  0
   17.9660  -11.9940   -3.7940 H   0  0  0  0  0  0  0  0  0  0  0  0
   19.3590  -12.8990   -3.5210 H   0  0  0  0  0  0  0  0  0  0  0  0
   19.4250  -11.2800   -3.6400 H   0  0  0  0  0  0  0  0  0  0  0  0
   18.4450  -13.2120   -1.0830 C   0  0  0  0  0  0  0  0  0  0  0  0
   18.1930  -14.3490   -1.9940 C   0  0  0  0  0  0  0  0  0  0  0  0
   16.9100  -14.6090   -2.4620 C   0  0  0  0  0  0  0  0  0  0  0  0
   16.7130  -15.7240   -3.3110 C   0  0  0  0  0  0  0  0  0  0  0  0
   17.7650  -16.5420   -3.6750 C   0  0  0  0  0  0  0  0  0  0  0  0
   17.5000  -18.0260   -4.8040 Br  0  0  0  0  0  0  0  0  0  0  0  0
   19.0460  -16.2710   -3.2040 C   0  0  0  0  0  0  0  0  0  0  0  0
   19.2450  -15.1830   -2.3730 C   0  0  0  0  0  0  0  0  0  0  0  0
  1  2  2  0  0  0  0
  3  2  1  0  0  0  0
  3  7  1  0  0  0  0
  4  3  2  0  0  0  0
  5  6  2  0  0  0  0
  5  4  1  0  0  0  0
  6  1  1  0  0  0  0
  7 17  2  0  0  0  0
  8  9  2  0  0  0  0
  8  7  1  0  0  0  0
  9 10  1  0  0  0  0
 10 16  2  0  0  0  0
 10 11  1  0  0  0  0
 11 13  1  0  0  0  0
 12 11  1  0  0  0  0
 14 13  2  0  0  0  0
 14 15  1  0  0  0  0
 16 14  1  0  0  0  0
 17 16  1  0  0  0  0
 18  1  1  0  0  0  0
 19 18  1  0  0  0  0
 20 19  1  1  0  0  0
 20 25  1  0  0  0  0
 21 20  1  0  0  0  0
 22 21  1  0  0  0  0
 23 21  1  0  0  0  0
 24 21  1  0  0  0  0
 26 25  1  0  0  0  0
 27 26  2  0  0  0  0
 28 27  1  0  0  0  0
 29 28  2  0  0  0  0
 29 31  1  0  0  0  0
 30 29  1  0  0  0  0
 31 32  2  0  0  0  0
 32 26  1  0  0  0  0
M  END
>  <minimizedAffinity>
-8.87989807

$$$$

 OpenBabel12271915493D

 32 35  0  0  1  0  0  0  0  0999 V2000
   23.4350  -12.6690   -0.6120 C   0  0  0  0  0  0  0  0  0  0  0  0
   22.0830  -12.8250   -0.8370 C   0  0  0  0  0  0  0  0  0  0  0  0
   21.5450  -14.0760   -1.3070 C   0  0  0  0  0  0  0  0  0  0  0  0
   22.4980  -15.0530   -1.4940 C   0  0  0  0  0  0  0  0  0  0  0  0
   23.8280  -14.8960   -1.2850 N   0  0  0  0  0  0  0  0  0  0  0  0
   24.2650  -13.6450   -0.8380 C   0  0  0  0  0  0  0  0  0  0  0  0
   20.1510  -14.2430   -1.5200 C   0  0  0  0  0  0  0  0  0  0  0  0
   19.2210  -13.4820   -0.8410 C   0  0  0  0  0  0  0  0  0  0  0  0
   17.8380  -13.6330   -1.0400 C   0  0  0  0  0  0  0  0  0  0  0  0
   17.4150  -14.5760   -1.9450 C   0  0  0  0  0  0  0  0  0  0  0  0
   16.1440  -14.9460   -2.3440 N   0  0  0  0  0  0  0  0  0  0  0  0
   15.2490  -14.5810   -2.0370 H   0  0  0  0  0  0  0  0  0  0  0  0
   16.2040  -15.9530   -3.2870 N   0  0  0  0  0  0  0  0  0  0  0  0
   17.5260  -16.1750   -3.4450 C   0  0  0  0  0  0  0  0  0  0  0  0
   18.0890  -17.2140   -4.3880 C   0  0  0  0  0  0  0  0  0  0  0  0
   18.3040  -15.3490   -2.6350 C   0  0  0  0  0  0  0  0  0  0  0  0
   19.6660  -15.1900   -2.4290 C   0  0  0  0  0  0  0  0  0  0  0  0
   23.6240  -11.4990   -0.1280 O   0  0  0  0  0  0  0  0  0  0  0  0
   23.5740   -9.9820    0.0750 C   0  0  0  0  0  0  0  0  0  0  0  0
   24.4560   -9.2630   -0.8420 C   0  0  1  0  0  0  0  0  0  0  0  0
   25.8560   -9.0830   -0.2140 N   0  0  0  0  0  0  0  0  0  0  0  0
   26.2430   -8.2170   -0.5170 H   0  0  0  0  0  0  0  0  0  0  0  0
   26.4380   -9.8880   -0.4410 H   0  0  0  0  0  0  0  0  0  0  0  0
   25.7410   -9.0710    0.7790 H   0  0  0  0  0  0  0  0  0  0  0  0
   24.4840  -10.0020   -2.1850 C   0  0  0  0  0  0  0  0  0  0  0  0
   23.3220   -9.7000   -3.0480 C   0  0  0  0  0  0  0  0  0  0  0  0
   22.8980   -8.3880   -3.2270 C   0  0  0  0  0  0  0  0  0  0  0  0
   21.7640   -8.1490   -4.0400 C   0  0  0  0  0  0  0  0  0  0  0  0
   21.0880   -9.1880   -4.6490 C   0  0  0  0  0  0  0  0  0  0  0  0
   19.5790   -8.8680   -5.7300 Br  0  0  0  0  0  0  0  0  0  0  0  0
   21.5230  -10.4970   -4.4660 C   0  0  0  0  0  0  0  0  0  0  0  0
   22.6290  -10.7380   -3.6710 C   0  0  0  0  0  0  0  0  0  0  0  0
  1 18  1  0  0  0  0
  2  1  2  0  0  0  0
  3  2  1  0  0  0  0
  4  3  2  0  0  0  0
  4  5  1  0  0  0  0
  5  6  2  0  0  0  0
  6  1  1  0  0  0  0
  7  3  1  0  0  0  0
  7  8  2  0  0  0  0
  9  8  1  0  0  0  0
 10  9  2  0  0  0  0
 11 12  1  0  0  0  0
 11 10  1  0  0  0  0
 13 11  1  0  0  0  0
 14 13  2  0  0  0  0
 14 16  1  0  0  0  0
 15 14  1  0  0  0  0
 16 17  2  0  0  0  0
 16 10  1  0  0  0  0
 17  7  1  0  0  0  0
 18 19  1  0  0  0  0
 20 25  1  6  0  0  0
 20 21  1  0  0  0  0
 20 19  1  0  0  0  0
 21 24  1  0  0  0  0
 22 21  1  0  0  0  0
 23 21  1  0  0  0  0
 26 25  1  0  0  0  0
 27 26  1  0  0  0  0
 28 27  2  0  0  0  0
 29 31  2  0  0  0  0
 29 28  1  0  0  0  0
 30 29  1  0  0  0  0
 31 32  1  0  0  0  0
 32 26  2  0  0  0  0
M  END
>  <minimizedAffinity>
-8.56077099

$$$$

 OpenBabel12271915493D

 32 35  0  0  1  0  0  0  0  0999 V2000
   20.1860   -8.7500   -1.3770 C   0  0  0  0  0  0  0  0  0  0  0  0
   21.1930   -9.6750   -1.1930 C   0  0  0  0  0  0  0  0  0  0  0  0
   22.5540   -9.2600   -0.9660 C   0  0  0  0  0  0  0  0  0  0  0  0
   22.7200   -7.8920   -0.9540 C   0  0  0  0  0  0  0  0  0  0  0  0
   21.7340   -6.9840   -1.1470 N   0  0  0  0  0  0  0  0  0  0  0  0
   20.4440   -7.4750   -1.3700 C   0  0  0  0  0  0  0  0  0  0  0  0
   23.5880  -10.2110   -0.7570 C   0  0  0  0  0  0  0  0  0  0  0  0
   24.8620   -9.8230   -0.3940 C   0  0  0  0  0  0  0  0  0  0  0  0
   25.8960  -10.7500   -0.1800 C   0  0  0  0  0  0  0  0  0  0  0  0
   25.6120  -12.0840   -0.3460 C   0  0  0  0  0  0  0  0  0  0  0  0
   26.4090  -13.2060   -0.2100 N   0  0  0  0  0  0  0  0  0  0  0  0
   27.3880  -13.2630    0.0460 H   0  0  0  0  0  0  0  0  0  0  0  0
   25.6870  -14.3510   -0.4800 N   0  0  0  0  0  0  0  0  0  0  0  0
   24.4500  -13.8960   -0.7750 C   0  0  0  0  0  0  0  0  0  0  0  0
   23.2990  -14.8000   -1.1510 C   0  0  0  0  0  0  0  0  0  0  0  0
   24.3640  -12.5070   -0.7060 C   0  0  0  0  0  0  0  0  0  0  0  0
   23.3530  -11.5810   -0.9130 C   0  0  0  0  0  0  0  0  0  0  0  0
   19.0790   -9.3850   -1.4760 O   0  0  0  0  0  0  0  0  0  0  0  0
   17.8220  -10.1830   -1.1200 C   0  0  0  0  0  0  0  0  0  0  0  0
   17.6220  -11.3350   -1.9970 C   0  0  1  0  0  0  0  0  0  0  0  0
   18.1640  -11.0380   -3.4130 N   0  0  0  0  0  0  0  0  0  0  0  0
   17.5990  -11.5060   -4.0860 H   0  0  0  0  0  0  0  0  0  0  0  0
   19.1490  -11.2950   -3.4610 H   0  0  0  0  0  0  0  0  0  0  0  0
   18.1090  -10.0500   -3.5540 H   0  0  0  0  0  0  0  0  0  0  0  0
   18.2620  -12.5690   -1.3480 C   0  0  0  0  0  0  0  0  0  0  0  0
   18.0800  -13.8080   -2.1340 C   0  0  0  0  0  0  0  0  0  0  0  0
   16.8620  -14.0860   -2.7440 C   0  0  0  0  0  0  0  0  0  0  0  0
   16.7270  -15.2970   -3.4640 C   0  0  0  0  0  0  0  0  0  0  0  0
   17.7770  -16.1890   -3.5680 C   0  0  0  0  0  0  0  0  0  0  0  0
   17.5950  -17.8010   -4.5260 Br  0  0  0  0  0  0  0  0  0  0  0  0
   18.9940  -15.8990   -2.9570 C   0  0  0  0  0  0  0  0  0  0  0  0
   19.1310  -14.7180   -2.2510 C   0  0  0  0  0  0  0  0  0  0  0  0
  1  6  2  0  0  0  0
  1  2  1  0  0  0  0
  2  3  2  0  0  0  0
  3  4  1  0  0  0  0
  3  7  1  0  0  0  0
  5  4  2  0  0  0  0
  6  5  1  0  0  0  0
  7  8  1  0  0  0  0
  8  9  2  0  0  0  0
 10 11  1  0  0  0  0
 10  9  1  0  0  0  0
 11 12  1  0  0  0  0
 13 11  1  0  0  0  0
 14 16  1  0  0  0  0
 14 13  2  0  0  0  0
 15 14  1  0  0  0  0
 16 10  2  0  0  0  0
 17  7  2  0  0  0  0
 17 16  1  0  0  0  0
 18  1  1  0  0  0  0
 18 19  1  0  0  0  0
 20 25  1  1  0  0  0
 20 19  1  0  0  0  0
 21 20  1  0  0  0  0
 22 21  1  0  0  0  0
 23 21  1  0  0  0  0
 24 21  1  0  0  0  0
 26 25  1  0  0  0  0
 27 26  2  0  0  0  0
 28 27  1  0  0  0  0
 29 28  2  0  0  0  0
 29 31  1  0  0  0  0
 30 29  1  0  0  0  0
 31 32  2  0  0  0  0
 32 26  1  0  0  0  0
M  END
>  <minimizedAffinity>
-8.50439835

$$$$

 OpenBabel12271915493D

 32 35  0  0  1  0  0  0  0  0999 V2000
   18.1990  -12.6930   -1.3220 C   0  0  0  0  0  0  0  0  0  0  0  0
   19.5620  -12.6190   -1.1270 C   0  0  0  0  0  0  0  0  0  0  0  0
   20.4040  -13.7750   -1.3000 C   0  0  0  0  0  0  0  0  0  0  0  0
   19.7160  -14.9100   -1.6700 C   0  0  0  0  0  0  0  0  0  0  0  0
   18.3750  -14.9850   -1.8490 N   0  0  0  0  0  0  0  0  0  0  0  0
   17.6330  -13.8170   -1.6500 C   0  0  0  0  0  0  0  0  0  0  0  0
   21.8110  -13.6950   -1.1180 C   0  0  0  0  0  0  0  0  0  0  0  0
   22.6330  -14.7750   -1.3700 C   0  0  0  0  0  0  0  0  0  0  0  0
   24.0260  -14.7140   -1.1970 C   0  0  0  0  0  0  0  0  0  0  0  0
   24.5710  -13.5300   -0.7610 C   0  0  0  0  0  0  0  0  0  0  0  0
   25.8820  -13.1750   -0.5030 N   0  0  0  0  0  0  0  0  0  0  0  0
   26.7220  -13.7360   -0.5880 H   0  0  0  0  0  0  0  0  0  0  0  0
   25.9560  -11.8640   -0.0770 N   0  0  0  0  0  0  0  0  0  0  0  0
   24.6730  -11.4440   -0.0870 C   0  0  0  0  0  0  0  0  0  0  0  0
   24.2500  -10.0500    0.3180 C   0  0  0  0  0  0  0  0  0  0  0  0
   23.7900  -12.4400   -0.5000 C   0  0  0  0  0  0  0  0  0  0  0  0
   22.4170  -12.5150   -0.6750 C   0  0  0  0  0  0  0  0  0  0  0  0
   17.7140  -11.5160   -1.1810 O   0  0  0  0  0  0  0  0  0  0  0  0
   17.0500  -10.1700   -1.4800 C   0  0  0  0  0  0  0  0  0  0  0  0
   17.4140   -9.6430   -2.7930 C   0  0  1  0  0  0  0  0  0  0  0  0
   16.1700   -9.0680   -3.5080 N   0  0  0  0  0  0  0  0  0  0  0  0
   16.2580   -9.2160   -4.4890 H   0  0  0  0  0  0  0  0  0  0  0  0
   16.0550   -8.0870   -3.2550 H   0  0  0  0  0  0  0  0  0  0  0  0
   15.3720   -9.5580   -3.1630 H   0  0  0  0  0  0  0  0  0  0  0  0
   18.5440   -8.6200   -2.6220 C   0  0  0  0  0  0  0  0  0  0  0  0
   19.8870   -9.1780   -2.8860 C   0  0  0  0  0  0  0  0  0  0  0  0
   21.0080   -8.6470   -2.2590 C   0  0  0  0  0  0  0  0  0  0  0  0
   22.2770   -9.1950   -2.5630 C   0  0  0  0  0  0  0  0  0  0  0  0
   22.4100  -10.2380   -3.4600 C   0  0  0  0  0  0  0  0  0  0  0  0
   24.0990  -10.9660   -3.8640 Br  0  0  0  0  0  0  0  0  0  0  0  0
   21.2810  -10.7650   -4.0800 C   0  0  0  0  0  0  0  0  0  0  0  0
   20.0380  -10.2310   -3.7880 C   0  0  0  0  0  0  0  0  0  0  0  0
  1 18  1  0  0  0  0
  1  2  1  0  0  0  0
  3  2  2  0  0  0  0
  3  7  1  0  0  0  0
  4  3  1  0  0  0  0
  5  4  2  0  0  0  0
  5  6  1  0  0  0  0
  6  1  2  0  0  0  0
  7 17  2  0  0  0  0
  8  9  2  0  0  0  0
  8  7  1  0  0  0  0
  9 10  1  0  0  0  0
 10 11  1  0  0  0  0
 10 16  2  0  0  0  0
 11 13  1  0  0  0  0
 12 11  1  0  0  0  0
 14 13  2  0  0  0  0
 14 15  1  0  0  0  0
 16 14  1  0  0  0  0
 17 16  1  0  0  0  0
 19 18  1  0  0  0  0
 20 25  1  1  0  0  0
 20 19  1  0  0  0  0
 21 23  1  0  0  0  0
 21 24  1  0  0  0  0
 21 20  1  0  0  0  0
 22 21  1  0  0  0  0
 26 25  1  0  0  0  0
 26 27  2  0  0  0  0
 28 27  1  0  0  0  0
 29 28  2  0  0  0  0
 30 29  1  0  0  0  0
 31 32  2  0  0  0  0
 31 29  1  0  0  0  0
 32 26  1  0  0  0  0
M  END
>  <minimizedAffinity>
-8.48248959

$$$$
