REMARK  Name = native.pdb
REMARK  3 active torsions:
REMARK  status: ('A' for Active; 'I' for Inactive)
REMARK    1  A    between atoms: _5  and  _28
REMARK    2  A    between atoms: _13  and  _14
REMARK    3  A    between atoms: _22  and  _28
REMARK                            x       y       z     vdW  Elec       q    Type
REMARK                         _______ _______ _______ _____ _____    ______ ____
ROOT
ATOM      1  H   UNL     1      24.217 -16.141  -0.982  0.00  0.00    +0.155 HD
ATOM      2  N   UNL     1      23.913 -15.180  -0.920  0.00  0.00    -0.280 N 
ATOM      3  C   UNL     1      24.696 -14.129  -0.626  0.00  0.00    +0.250 C 
ATOM      4  O   UNL     1      25.901 -14.226  -0.414  0.00  0.00    -0.270 OA
ATOM      5  C   UNL     1      23.928 -12.946  -0.649  0.00  0.00    +0.056 C 
ATOM      6  C   UNL     1      24.270 -11.612  -0.434  0.00  0.00    +0.022 C 
ATOM      7  C   UNL     1      22.637 -13.341  -0.953  0.00  0.00    +0.019 A 
ATOM      8  C   UNL     1      21.453 -12.620  -1.077  0.00  0.00    +0.021 A 
ATOM      9  C   UNL     1      20.280 -13.301  -1.369  0.00  0.00    +0.122 A 
ATOM     10  C   UNL     1      20.295 -14.694  -1.535  0.00  0.00    +0.021 A 
ATOM     11  C   UNL     1      21.487 -15.421  -1.414  0.00  0.00    +0.016 A 
ATOM     12  C   UNL     1      22.662 -14.744  -1.117  0.00  0.00    +0.051 A 
ENDROOT
BRANCH   6  13
ATOM     13  C   UNL     1      25.578 -11.131  -0.348  0.00  0.00    +0.056 A 
ATOM     14  N   UNL     1      26.738 -11.803  -0.221  0.00  0.00    -0.357 N 
ATOM     15  C   UNL     1      27.735 -10.908  -0.136  0.00  0.00    +0.030 A 
ATOM     16  C   UNL     1      29.228 -11.203   0.029  0.00  0.00    +0.043 C 
ATOM     17  C   UNL     1      29.927  -9.972   0.650  0.00  0.00    +0.007 C 
ATOM     18  C   UNL     1      29.495  -8.594   0.092  0.00  0.00    +0.005 C 
ATOM     19  C   UNL     1      27.990  -8.340  -0.174  0.00  0.00    +0.028 C 
ATOM     20  C   UNL     1      27.176  -9.642  -0.237  0.00  0.00    -0.009 A 
ATOM     21  H   UNL     1      26.840 -12.807  -0.194  0.00  0.00    +0.166 HD
ATOM     22  C   UNL     1      25.834  -9.799  -0.357  0.00  0.00    +0.014 A 
ENDBRANCH   6  13
BRANCH   9  23
ATOM     23  S   UNL     1      18.742 -12.379  -1.563  0.00  0.00    +0.063 S 
ATOM     24  O   UNL     1      18.645 -11.314  -0.537  0.00  0.00    -0.153 OA
ATOM     25  O   UNL     1      17.686 -13.413  -1.440  0.00  0.00    -0.153 OA
BRANCH  23  26
ATOM     26  N   UNL     1      18.762 -11.650  -3.116  0.00  0.00    -0.153 NA
ATOM     27  C   UNL     1      19.714 -10.515  -3.150  0.00  0.00    +0.115 C 
ATOM     28  C   UNL     1      19.119 -12.613  -4.165  0.00  0.00    +0.115 C 
ENDBRANCH  23  26
ENDBRANCH   9  23
TORSDOF 3
