
 OpenBabel12271915193D

 22 23  0  0  1  0  0  0  0  0999 V2000
   22.8590   66.1070   31.7830 C   0  0  2  0  0  0  0  0  0  0  0  0
   22.1290   65.2100   32.8290 C   0  0  2  0  0  0  0  0  0  0  0  0
   22.9670   64.0010   32.9370 O   0  0  0  0  0  0  0  0  0  0  0  0
   24.2830   64.5300   32.7200 C   0  0  2  0  0  0  0  0  0  0  0  0
   24.1370   65.3740   31.4640 C   0  0  0  0  0  0  0  0  0  0  0  0
   25.2880   63.4130   32.6400 C   0  0  0  0  0  0  0  0  0  0  0  0
   26.2440   63.3130   31.6230 C   0  0  0  0  0  0  0  0  0  0  0  0
   27.1640   62.2910   31.6150 C   0  0  0  0  0  0  0  0  0  0  0  0
   28.1830   62.1660   30.5280 C   0  0  0  0  0  0  0  0  0  0  0  0
   27.0760   61.3650   32.6540 C   0  0  0  0  0  0  0  0  0  0  0  0
   26.2090   61.3890   33.6720 N   0  0  0  0  0  0  0  0  0  0  0  0
   25.3210   62.4230   33.6170 C   0  0  0  0  0  0  0  0  0  0  0  0
   27.9620   60.3410   32.6820 O   0  0  0  0  0  0  0  0  0  0  0  0
   27.8420   59.9440   33.5820 H   0  0  0  0  0  0  0  0  0  0  0  0
   23.2810   67.3630   32.3840 O   0  0  0  0  0  0  0  0  0  0  0  0
   23.6590   67.8820   31.6740 H   0  0  0  0  0  0  0  0  0  0  0  0
   20.6990   64.8870   32.4610 C   0  0  0  0  0  0  0  0  0  0  0  0
   20.0530   64.1610   33.4630 O   0  0  0  0  0  0  0  0  0  0  0  0
   19.5210   62.6690   33.0540 P   0  0  0  0  0  0  0  0  0  0  0  0
   20.3530   61.7740   34.0500 O   0  0  0  0  0  0  0  0  0  0  0  0
   18.0470   62.7390   33.3470 O   0  0  0  0  0  0  0  0  0  0  0  0
   19.9500   62.5150   31.6190 O   0  0  0  0  0  0  0  0  0  0  0  0
  1 15  1  1  0  0  0
  1  2  1  0  0  0  0
  2 17  1  6  0  0  0
  2  3  1  0  0  0  0
  4  6  1  6  0  0  0
  4  3  1  0  0  0  0
  5  1  1  0  0  0  0
  5  4  1  0  0  0  0
  6 12  2  0  0  0  0
  7  6  1  0  0  0  0
  8  7  2  0  0  0  0
  8 10  1  0  0  0  0
  9  8  1  0  0  0  0
 10 13  1  0  0  0  0
 10 11  2  0  0  0  0
 12 11  1  0  0  0  0
 13 14  1  0  0  0  0
 16 15  1  0  0  0  0
 17 18  1  0  0  0  0
 19 21  1  0  0  0  0
 19 18  1  0  0  0  0
 19 20  1  0  0  0  0
 22 19  2  0  0  0  0
M  END
>  <minimizedAffinity>
-7.33693743

$$$$

 OpenBabel12271915193D

 22 23  0  0  1  0  0  0  0  0999 V2000
   23.8220   66.4520   31.3860 C   0  0  2  0  0  0  0  0  0  0  0  0
   22.7100   66.3380   32.4730 C   0  0  2  0  0  0  0  0  0  0  0  0
   22.9510   65.0350   33.1210 O   0  0  0  0  0  0  0  0  0  0  0  0
   24.3790   64.9220   33.0410 C   0  0  2  0  0  0  0  0  0  0  0  0
   24.6910   65.2380   31.5880 C   0  0  0  0  0  0  0  0  0  0  0  0
   24.8220   63.5670   33.5230 C   0  0  0  0  0  0  0  0  0  0  0  0
   24.1120   62.8200   34.4700 C   0  0  0  0  0  0  0  0  0  0  0  0
   24.5410   61.5710   34.8520 C   0  0  0  0  0  0  0  0  0  0  0  0
   23.7980   60.7670   35.8710 C   0  0  0  0  0  0  0  0  0  0  0  0
   25.7170   61.1080   34.2620 C   0  0  0  0  0  0  0  0  0  0  0  0
   26.4500   61.7440   33.3410 N   0  0  0  0  0  0  0  0  0  0  0  0
   25.9740   62.9790   33.0110 C   0  0  0  0  0  0  0  0  0  0  0  0
   26.1760   59.8830   34.6110 O   0  0  0  0  0  0  0  0  0  0  0  0
   26.8810   59.6910   33.9430 H   0  0  0  0  0  0  0  0  0  0  0  0
   24.6900   67.5890   31.6520 O   0  0  0  0  0  0  0  0  0  0  0  0
   25.3010   67.6340   30.9160 H   0  0  0  0  0  0  0  0  0  0  0  0
   21.3070   66.4550   31.9220 C   0  0  0  0  0  0  0  0  0  0  0  0
   21.0280   67.7480   31.4740 O   0  0  0  0  0  0  0  0  0  0  0  0
   19.4570   68.2040   31.5010 P   0  0  0  0  0  0  0  0  0  0  0  0
   18.8090   66.9890   32.2690 O   0  0  0  0  0  0  0  0  0  0  0  0
   19.4890   69.4950   32.2720 O   0  0  0  0  0  0  0  0  0  0  0  0
   19.0720   68.2570   30.0460 O   0  0  0  0  0  0  0  0  0  0  0  0
  1  5  1  0  0  0  0
  1 15  1  1  0  0  0
  1  2  1  0  0  0  0
  2 17  1  6  0  0  0
  2  3  1  0  0  0  0
  4  3  1  0  0  0  0
  4  6  1  6  0  0  0
  5  4  1  0  0  0  0
  6  7  1  0  0  0  0
  7  8  2  0  0  0  0
  8  9  1  0  0  0  0
 10 13  1  0  0  0  0
 10  8  1  0  0  0  0
 11 10  2  0  0  0  0
 12 11  1  0  0  0  0
 12  6  2  0  0  0  0
 14 13  1  0  0  0  0
 16 15  1  0  0  0  0
 18 19  1  0  0  0  0
 18 17  1  0  0  0  0
 19 20  1  0  0  0  0
 19 21  1  0  0  0  0
 22 19  2  0  0  0  0
M  END
>  <minimizedAffinity>
-7.31493855

$$$$

 OpenBabel12271915193D

 22 23  0  0  1  0  0  0  0  0999 V2000
   21.3240   61.2050   32.1510 C   0  0  2  0  0  0  0  0  0  0  0  0
   21.7100   61.9380   33.4720 C   0  0  2  0  0  0  0  0  0  0  0  0
   21.2110   63.3150   33.2970 O   0  0  0  0  0  0  0  0  0  0  0  0
   20.0390   63.1080   32.4960 C   0  0  2  0  0  0  0  0  0  0  0  0
   20.5190   62.2100   31.3680 C   0  0  0  0  0  0  0  0  0  0  0  0
   19.4550   64.4290   32.0740 C   0  0  0  0  0  0  0  0  0  0  0  0
   20.1400   65.6440   32.1970 C   0  0  0  0  0  0  0  0  0  0  0  0
   19.5760   66.8200   31.7630 C   0  0  0  0  0  0  0  0  0  0  0  0
   20.2910   68.1260   31.8980 C   0  0  0  0  0  0  0  0  0  0  0  0
   18.2950   66.7340   31.2190 C   0  0  0  0  0  0  0  0  0  0  0  0
   17.5740   65.6200   31.0480 N   0  0  0  0  0  0  0  0  0  0  0  0
   18.1870   64.4900   31.5050 C   0  0  0  0  0  0  0  0  0  0  0  0
   17.7020   67.8700   30.7810 O   0  0  0  0  0  0  0  0  0  0  0  0
   16.9150   67.5490   30.2710 H   0  0  0  0  0  0  0  0  0  0  0  0
   20.4080   60.1080   32.4180 O   0  0  0  0  0  0  0  0  0  0  0  0
   20.2690   59.6690   31.5780 H   0  0  0  0  0  0  0  0  0  0  0  0
   23.1900   61.8990   33.7800 C   0  0  0  0  0  0  0  0  0  0  0  0
   23.9650   62.1970   32.6580 O   0  0  0  0  0  0  0  0  0  0  0  0
   25.2920   63.1180   32.9140 P   0  0  0  0  0  0  0  0  0  0  0  0
   25.1550   64.1660   31.7440 O   0  0  0  0  0  0  0  0  0  0  0  0
   25.0610   63.6760   34.2920 O   0  0  0  0  0  0  0  0  0  0  0  0
   26.4380   62.1610   32.7200 O   0  0  0  0  0  0  0  0  0  0  0  0
  1 15  1  1  0  0  0
  1  2  1  0  0  0  0
  2 17  1  6  0  0  0
  3  2  1  0  0  0  0
  4  6  1  6  0  0  0
  4  3  1  0  0  0  0
  5  1  1  0  0  0  0
  5  4  1  0  0  0  0
  6  7  1  0  0  0  0
  8  9  1  0  0  0  0
  8  7  2  0  0  0  0
 10  8  1  0  0  0  0
 11 10  2  0  0  0  0
 11 12  1  0  0  0  0
 12  6  2  0  0  0  0
 13 10  1  0  0  0  0
 14 13  1  0  0  0  0
 16 15  1  0  0  0  0
 18 19  1  0  0  0  0
 18 17  1  0  0  0  0
 19 21  1  0  0  0  0
 20 19  2  0  0  0  0
 22 19  1  0  0  0  0
M  END
>  <minimizedAffinity>
-7.30789089

$$$$

 OpenBabel12271915193D

 22 23  0  0  1  0  0  0  0  0999 V2000
   23.1810   67.5120   31.3150 C   0  0  2  0  0  0  0  0  0  0  0  0
   22.1130   66.9390   32.2960 C   0  0  2  0  0  0  0  0  0  0  0  0
   22.6170   65.6020   32.6610 O   0  0  0  0  0  0  0  0  0  0  0  0
   24.0370   65.8000   32.6300 C   0  0  2  0  0  0  0  0  0  0  0  0
   24.2830   66.4840   31.2950 C   0  0  0  0  0  0  0  0  0  0  0  0
   24.7510   64.4910   32.8320 C   0  0  0  0  0  0  0  0  0  0  0  0
   25.7430   64.0170   31.9650 C   0  0  0  0  0  0  0  0  0  0  0  0
   26.3910   62.8300   32.2140 C   0  0  0  0  0  0  0  0  0  0  0  0
   27.4450   62.3060   31.2910 C   0  0  0  0  0  0  0  0  0  0  0  0
   25.9930   62.1290   33.3520 C   0  0  0  0  0  0  0  0  0  0  0  0
   25.0690   62.5100   34.2410 N   0  0  0  0  0  0  0  0  0  0  0  0
   24.4610   63.6920   33.9330 C   0  0  0  0  0  0  0  0  0  0  0  0
   26.6040   60.9530   33.6330 O   0  0  0  0  0  0  0  0  0  0  0  0
   26.3140   60.7460   34.5570 H   0  0  0  0  0  0  0  0  0  0  0  0
   23.7920   68.7130   31.8610 O   0  0  0  0  0  0  0  0  0  0  0  0
   24.3830   69.0410   31.1830 H   0  0  0  0  0  0  0  0  0  0  0  0
   20.7180   66.8880   31.7150 C   0  0  0  0  0  0  0  0  0  0  0  0
   20.4350   68.0130   30.9380 O   0  0  0  0  0  0  0  0  0  0  0  0
   18.9600   68.0580   30.2330 P   0  0  0  0  0  0  0  0  0  0  0  0
   18.3950   66.6430   30.6380 O   0  0  0  0  0  0  0  0  0  0  0  0
   18.2910   69.2230   30.9100 O   0  0  0  0  0  0  0  0  0  0  0  0
   19.2660   68.1740   28.7630 O   0  0  0  0  0  0  0  0  0  0  0  0
  1 15  1  1  0  0  0
  1  2  1  0  0  0  0
  2 17  1  6  0  0  0
  2  3  1  0  0  0  0
  4  3  1  0  0  0  0
  4  6  1  6  0  0  0
  5  1  1  0  0  0  0
  5  4  1  0  0  0  0
  6 12  2  0  0  0  0
  7  8  2  0  0  0  0
  7  6  1  0  0  0  0
  8 10  1  0  0  0  0
  9  8  1  0  0  0  0
 10 13  1  0  0  0  0
 10 11  2  0  0  0  0
 12 11  1  0  0  0  0
 13 14  1  0  0  0  0
 16 15  1  0  0  0  0
 18 17  1  0  0  0  0
 19 20  1  0  0  0  0
 19 21  1  0  0  0  0
 19 18  1  0  0  0  0
 22 19  2  0  0  0  0
M  END
>  <minimizedAffinity>
-7.30259562

$$$$

 OpenBabel12271915193D

 22 23  0  0  1  0  0  0  0  0999 V2000
   18.5430   63.0550   32.4060 C   0  0  2  0  0  0  0  0  0  0  0  0
   19.3420   64.0810   31.5450 C   0  0  2  0  0  0  0  0  0  0  0  0
   20.7320   63.9730   32.0270 O   0  0  0  0  0  0  0  0  0  0  0  0
   20.8170   62.5860   32.3830 C   0  0  2  0  0  0  0  0  0  0  0  0
   19.5830   62.3510   33.2390 C   0  0  0  0  0  0  0  0  0  0  0  0
   22.1350   62.2990   33.0490 C   0  0  0  0  0  0  0  0  0  0  0  0
   23.3430   62.8740   32.6380 C   0  0  0  0  0  0  0  0  0  0  0  0
   24.5170   62.6060   33.3020 C   0  0  0  0  0  0  0  0  0  0  0  0
   25.8160   63.2050   32.8660 C   0  0  0  0  0  0  0  0  0  0  0  0
   24.4350   61.7270   34.3820 C   0  0  0  0  0  0  0  0  0  0  0  0
   23.3270   61.1450   34.8540 N   0  0  0  0  0  0  0  0  0  0  0  0
   22.2000   61.4460   34.1470 C   0  0  0  0  0  0  0  0  0  0  0  0
   25.5680   61.4340   35.0630 O   0  0  0  0  0  0  0  0  0  0  0  0
   25.2460   60.9710   35.8770 H   0  0  0  0  0  0  0  0  0  0  0  0
   17.9620   62.0190   31.5670 O   0  0  0  0  0  0  0  0  0  0  0  0
   17.4380   61.4690   32.1500 H   0  0  0  0  0  0  0  0  0  0  0  0
   18.8110   65.4940   31.6340 C   0  0  0  0  0  0  0  0  0  0  0  0
   19.7140   66.3510   32.2660 O   0  0  0  0  0  0  0  0  0  0  0  0
   19.9560   67.8050   31.5560 P   0  0  0  0  0  0  0  0  0  0  0  0
   21.5290   67.8230   31.4480 O   0  0  0  0  0  0  0  0  0  0  0  0
   19.2340   67.6690   30.2430 O   0  0  0  0  0  0  0  0  0  0  0  0
   19.4210   68.7910   32.5600 O   0  0  0  0  0  0  0  0  0  0  0  0
  1 15  1  6  0  0  0
  1  5  1  0  0  0  0
  2 17  1  1  0  0  0
  2  3  1  0  0  0  0
  2  1  1  0  0  0  0
  3  4  1  0  0  0  0
  4  6  1  1  0  0  0
  4  5  1  0  0  0  0
  6 12  2  0  0  0  0
  7  6  1  0  0  0  0
  7  8  2  0  0  0  0
  8 10  1  0  0  0  0
  9  8  1  0  0  0  0
 10 11  2  0  0  0  0
 10 13  1  0  0  0  0
 12 11  1  0  0  0  0
 13 14  1  0  0  0  0
 15 16  1  0  0  0  0
 17 18  1  0  0  0  0
 19 18  1  0  0  0  0
 19 22  1  0  0  0  0
 20 19  1  0  0  0  0
 21 19  2  0  0  0  0
M  END
>  <minimizedAffinity>
-7.01253939

$$$$

 OpenBabel12271915193D

 22 23  0  0  1  0  0  0  0  0999 V2000
   19.7340   64.0110   32.6890 C   0  0  2  0  0  0  0  0  0  0  0  0
   19.4220   63.2150   33.9940 C   0  0  2  0  0  0  0  0  0  0  0  0
   20.6590   62.4650   34.2800 O   0  0  0  0  0  0  0  0  0  0  0  0
   21.6700   63.3590   33.7930 C   0  0  2  0  0  0  0  0  0  0  0  0
   21.1870   63.7350   32.4020 C   0  0  0  0  0  0  0  0  0  0  0  0
   23.0220   62.7030   33.8580 C   0  0  0  0  0  0  0  0  0  0  0  0
   24.1040   63.0970   33.0610 C   0  0  0  0  0  0  0  0  0  0  0  0
   25.3310   62.4880   33.1840 C   0  0  0  0  0  0  0  0  0  0  0  0
   26.4910   62.8910   32.3320 C   0  0  0  0  0  0  0  0  0  0  0  0
   25.4260   61.4600   34.1210 C   0  0  0  0  0  0  0  0  0  0  0  0
   24.4540   61.0290   34.9330 N   0  0  0  0  0  0  0  0  0  0  0  0
   23.2620   61.6690   34.7570 C   0  0  0  0  0  0  0  0  0  0  0  0
   26.6160   60.8320   34.2730 O   0  0  0  0  0  0  0  0  0  0  0  0
   26.5040   60.2990   35.1000 H   0  0  0  0  0  0  0  0  0  0  0  0
   19.6570   65.4430   32.9280 O   0  0  0  0  0  0  0  0  0  0  0  0
   19.7940   65.8610   32.0770 H   0  0  0  0  0  0  0  0  0  0  0  0
   18.2150   62.3100   33.8820 C   0  0  0  0  0  0  0  0  0  0  0  0
   17.1650   62.9240   33.1970 O   0  0  0  0  0  0  0  0  0  0  0  0
   16.5910   62.1330   31.8860 P   0  0  0  0  0  0  0  0  0  0  0  0
   15.0740   61.9670   32.2810 O   0  0  0  0  0  0  0  0  0  0  0  0
   16.8490   63.1000   30.7620 O   0  0  0  0  0  0  0  0  0  0  0  0
   17.3490   60.8320   31.8890 O   0  0  0  0  0  0  0  0  0  0  0  0
  1 15  1  1  0  0  0
  1  2  1  0  0  0  0
  2 17  1  6  0  0  0
  2  3  1  0  0  0  0
  4  6  1  6  0  0  0
  4  3  1  0  0  0  0
  5  1  1  0  0  0  0
  5  4  1  0  0  0  0
  6 12  2  0  0  0  0
  7  8  2  0  0  0  0
  7  6  1  0  0  0  0
  8 10  1  0  0  0  0
  9  8  1  0  0  0  0
 10 13  1  0  0  0  0
 10 11  2  0  0  0  0
 12 11  1  0  0  0  0
 13 14  1  0  0  0  0
 16 15  1  0  0  0  0
 18 17  1  0  0  0  0
 19 22  1  0  0  0  0
 19 20  1  0  0  0  0
 19 18  1  0  0  0  0
 21 19  2  0  0  0  0
M  END
>  <minimizedAffinity>
-6.92740345

$$$$

 OpenBabel12271915193D

 22 23  0  0  1  0  0  0  0  0999 V2000
   18.6870   61.5220   32.3820 C   0  0  2  0  0  0  0  0  0  0  0  0
   18.5960   62.8370   31.5470 C   0  0  2  0  0  0  0  0  0  0  0  0
   19.7340   63.6540   32.0100 O   0  0  0  0  0  0  0  0  0  0  0  0
   20.7140   62.6530   32.3190 C   0  0  2  0  0  0  0  0  0  0  0  0
   19.9580   61.6540   33.1800 C   0  0  0  0  0  0  0  0  0  0  0  0
   21.9200   63.2840   32.9610 C   0  0  0  0  0  0  0  0  0  0  0  0
   22.7480   62.6100   33.8650 C   0  0  0  0  0  0  0  0  0  0  0  0
   23.8600   63.2200   34.3970 C   0  0  0  0  0  0  0  0  0  0  0  0
   24.7470   62.5150   35.3720 C   0  0  0  0  0  0  0  0  0  0  0  0
   24.0960   64.5370   34.0030 C   0  0  0  0  0  0  0  0  0  0  0  0
   23.3700   65.2520   33.1360 N   0  0  0  0  0  0  0  0  0  0  0  0
   22.2800   64.5920   32.6510 C   0  0  0  0  0  0  0  0  0  0  0  0
   25.1790   65.1760   34.5050 O   0  0  0  0  0  0  0  0  0  0  0  0
   25.2540   65.9940   33.9510 H   0  0  0  0  0  0  0  0  0  0  0  0
   18.8970   60.3740   31.5160 O   0  0  0  0  0  0  0  0  0  0  0  0
   18.8770   59.6050   32.0860 H   0  0  0  0  0  0  0  0  0  0  0  0
   17.2750   63.5580   31.6890 C   0  0  0  0  0  0  0  0  0  0  0  0
   16.9760   64.3260   30.5610 O   0  0  0  0  0  0  0  0  0  0  0  0
   16.6480   65.9070   30.8240 P   0  0  0  0  0  0  0  0  0  0  0  0
   16.2160   66.3640   29.3790 O   0  0  0  0  0  0  0  0  0  0  0  0
   15.5330   65.8620   31.8330 O   0  0  0  0  0  0  0  0  0  0  0  0
   17.9710   66.4830   31.2570 O   0  0  0  0  0  0  0  0  0  0  0  0
  1 15  1  6  0  0  0
  1  5  1  0  0  0  0
  2 17  1  1  0  0  0
  2  3  1  0  0  0  0
  2  1  1  0  0  0  0
  3  4  1  0  0  0  0
  4  6  1  1  0  0  0
  4  5  1  0  0  0  0
  6  7  1  0  0  0  0
  7  8  2  0  0  0  0
  8  9  1  0  0  0  0
 10  8  1  0  0  0  0
 10 13  1  0  0  0  0
 11 10  2  0  0  0  0
 12  6  2  0  0  0  0
 12 11  1  0  0  0  0
 14 13  1  0  0  0  0
 15 16  1  0  0  0  0
 18 19  1  0  0  0  0
 18 17  1  0  0  0  0
 19 22  1  0  0  0  0
 19 21  1  0  0  0  0
 20 19  2  0  0  0  0
M  END
>  <minimizedAffinity>
-6.79586983

$$$$

 OpenBabel12271915193D

 22 23  0  0  1  0  0  0  0  0999 V2000
   18.5410   62.2760   32.3910 C   0  0  2  0  0  0  0  0  0  0  0  0
   19.2350   63.3550   31.5040 C   0  0  2  0  0  0  0  0  0  0  0  0
   20.6170   63.4270   32.0140 O   0  0  0  0  0  0  0  0  0  0  0  0
   20.8540   62.0730   32.4260 C   0  0  2  0  0  0  0  0  0  0  0  0
   19.6370   61.7280   33.2680 C   0  0  0  0  0  0  0  0  0  0  0  0
   22.1820   61.9650   33.1260 C   0  0  0  0  0  0  0  0  0  0  0  0
   23.3490   62.5780   32.6540 C   0  0  0  0  0  0  0  0  0  0  0  0
   24.5310   62.4780   33.3500 C   0  0  0  0  0  0  0  0  0  0  0  0
   25.7870   63.1180   32.8510 C   0  0  0  0  0  0  0  0  0  0  0  0
   24.5020   61.7270   34.5240 C   0  0  0  0  0  0  0  0  0  0  0  0
   23.4340   61.1210   35.0570 N   0  0  0  0  0  0  0  0  0  0  0  0
   22.2960   61.2530   34.3160 C   0  0  0  0  0  0  0  0  0  0  0  0
   25.6450   61.6010   35.2390 O   0  0  0  0  0  0  0  0  0  0  0  0
   25.3480   61.2120   36.1000 H   0  0  0  0  0  0  0  0  0  0  0  0
   18.1020   61.1490   31.5830 O   0  0  0  0  0  0  0  0  0  0  0  0
   17.6320   60.5640   32.1770 H   0  0  0  0  0  0  0  0  0  0  0  0
   18.5440   64.7000   31.5300 C   0  0  0  0  0  0  0  0  0  0  0  0
   17.3460   64.6840   30.8120 O   0  0  0  0  0  0  0  0  0  0  0  0
   16.4760   66.0690   30.8190 P   0  0  0  0  0  0  0  0  0  0  0  0
   15.1450   65.5800   31.5060 O   0  0  0  0  0  0  0  0  0  0  0  0
   17.3160   66.9970   31.6550 O   0  0  0  0  0  0  0  0  0  0  0  0
   16.3030   66.3930   29.3580 O   0  0  0  0  0  0  0  0  0  0  0  0
  1 15  1  6  0  0  0
  1  5  1  0  0  0  0
  2 17  1  1  0  0  0
  2  3  1  0  0  0  0
  2  1  1  0  0  0  0
  3  4  1  0  0  0  0
  4  6  1  1  0  0  0
  4  5  1  0  0  0  0
  6 12  2  0  0  0  0
  7  6  1  0  0  0  0
  7  8  2  0  0  0  0
  8 10  1  0  0  0  0
  9  8  1  0  0  0  0
 10 11  2  0  0  0  0
 10 13  1  0  0  0  0
 12 11  1  0  0  0  0
 13 14  1  0  0  0  0
 15 16  1  0  0  0  0
 18 19  1  0  0  0  0
 18 17  1  0  0  0  0
 19 20  1  0  0  0  0
 19 21  1  0  0  0  0
 22 19  2  0  0  0  0
M  END
>  <minimizedAffinity>
-6.72177124

$$$$

 OpenBabel12271915193D

 22 23  0  0  1  0  0  0  0  0999 V2000
   19.2980   60.9420   33.1190 C   0  0  2  0  0  0  0  0  0  0  0  0
   18.8190   61.9450   32.0250 C   0  0  2  0  0  0  0  0  0  0  0  0
   19.8640   62.9860   31.9880 O   0  0  0  0  0  0  0  0  0  0  0  0
   21.0450   62.2340   32.3020 C   0  0  2  0  0  0  0  0  0  0  0  0
   20.6570   61.4400   33.5380 C   0  0  0  0  0  0  0  0  0  0  0  0
   22.2230   63.1570   32.4640 C   0  0  0  0  0  0  0  0  0  0  0  0
   23.5420   62.7030   32.5790 C   0  0  0  0  0  0  0  0  0  0  0  0
   24.5870   63.5890   32.6890 C   0  0  0  0  0  0  0  0  0  0  0  0
   26.0000   63.1180   32.8240 C   0  0  0  0  0  0  0  0  0  0  0  0
   24.2580   64.9440   32.6980 C   0  0  0  0  0  0  0  0  0  0  0  0
   23.0320   65.4680   32.5790 N   0  0  0  0  0  0  0  0  0  0  0  0
   22.0410   64.5360   32.4790 C   0  0  0  0  0  0  0  0  0  0  0  0
   25.2580   65.8510   32.8070 O   0  0  0  0  0  0  0  0  0  0  0  0
   24.8230   66.7150   32.5950 H   0  0  0  0  0  0  0  0  0  0  0  0
   19.5350   59.6270   32.5460 O   0  0  0  0  0  0  0  0  0  0  0  0
   19.7600   59.0540   33.2790 H   0  0  0  0  0  0  0  0  0  0  0  0
   17.4450   62.5190   32.2860 C   0  0  0  0  0  0  0  0  0  0  0  0
   16.4420   61.7800   31.6550 O   0  0  0  0  0  0  0  0  0  0  0  0
   15.5090   60.8490   32.6230 P   0  0  0  0  0  0  0  0  0  0  0  0
   14.1550   60.8470   31.8150 O   0  0  0  0  0  0  0  0  0  0  0  0
   16.2370   59.5320   32.6370 O   0  0  0  0  0  0  0  0  0  0  0  0
   15.4300   61.6290   33.9080 O   0  0  0  0  0  0  0  0  0  0  0  0
  1 15  1  6  0  0  0
  1  5  1  0  0  0  0
  2 17  1  1  0  0  0
  2  1  1  0  0  0  0
  3  2  1  0  0  0  0
  3  4  1  0  0  0  0
  4  6  1  1  0  0  0
  4  5  1  0  0  0  0
  6 12  2  0  0  0  0
  6  7  1  0  0  0  0
  7  8  2  0  0  0  0
  8 10  1  0  0  0  0
  8  9  1  0  0  0  0
 10 13  1  0  0  0  0
 11 10  2  0  0  0  0
 12 11  1  0  0  0  0
 14 13  1  0  0  0  0
 15 16  1  0  0  0  0
 18 17  1  0  0  0  0
 18 19  1  0  0  0  0
 19 21  1  0  0  0  0
 19 22  1  0  0  0  0
 20 19  2  0  0  0  0
M  END
>  <minimizedAffinity>
-6.69622707

$$$$
