
 OpenBabel12271915153D

 25 29  0  0  1  0  0  0  0  0999 V2000
   21.2810   63.0750   31.9560 C   0  0  1  0  0  0  0  0  0  0  0  0
   22.1380   64.3010   31.8770 C   0  0  1  0  0  0  0  0  0  0  0  0
   21.5440   65.6890   31.8820 C   0  0  0  0  0  0  0  0  0  0  0  0
   20.1580   65.8440   31.9980 C   0  0  0  0  0  0  0  0  0  0  0  0
   19.6310   67.1560   32.0660 C   0  0  0  0  0  0  0  0  0  0  0  0
   18.3390   67.4500   32.2700 O   0  0  0  0  0  0  0  0  0  0  0  0
   18.3640   68.8390   32.5940 C   0  0  0  0  0  0  0  0  0  0  0  0
   19.6300   69.3790   32.1480 O   0  0  0  0  0  0  0  0  0  0  0  0
   20.3880   68.2550   32.0000 C   0  0  0  0  0  0  0  0  0  0  0  0
   21.7470   68.1700   31.8570 C   0  0  0  0  0  0  0  0  0  0  0  0
   22.3500   66.8820   31.8190 C   0  0  0  0  0  0  0  0  0  0  0  0
   23.8380   67.0260   31.7360 C   0  0  0  0  0  0  0  0  0  0  0  0
   24.5880   65.8230   32.3370 C   0  0  0  0  0  0  0  0  0  0  0  0
   23.8240   65.2550   33.5100 N   0  0  2  0  0  0  0  0  0  0  0  0
   23.2370   65.9630   33.9790 H   0  0  0  0  0  0  0  0  0  0  0  0
   24.8050   64.6810   34.4940 C   0  0  0  0  0  0  0  0  0  0  0  0
   25.3590   63.5350   33.6730 C   0  0  0  0  0  0  0  0  0  0  0  0
   24.1380   62.9980   32.9070 C   0  0  0  0  0  0  0  0  0  0  0  0
   23.0480   64.0600   33.0970 C   0  0  2  0  0  0  0  0  0  0  0  0
   22.0070   63.6060   34.0780 C   0  0  0  0  0  0  0  0  0  0  0  0
   20.9990   63.0300   33.4260 C   0  0  1  0  0  0  0  0  0  0  0  0
   20.1270   63.0580   31.1560 O   0  0  0  0  0  0  0  0  0  0  0  0
   20.3310   63.4390   30.2900 H   0  0  0  0  0  0  0  0  0  0  0  0
   19.8650   62.5740   34.0020 O   0  0  0  0  0  0  0  0  0  0  0  0
   19.5230   62.9540   35.3390 C   0  0  0  0  0  0  0  0  0  0  0  0
  1 22  1  6  0  0  0
  1 21  1  0  0  0  0
  2  3  1  0  0  0  0
  2  1  1  0  0  0  0
  2 19  1  1  0  0  0
  3  4  2  0  0  0  0
  4  5  1  0  0  0  0
  5  6  1  0  0  0  0
  6  7  1  0  0  0  0
  8  7  1  0  0  0  0
  9  5  2  0  0  0  0
  9  8  1  0  0  0  0
 10  9  1  0  0  0  0
 11 10  2  0  0  0  0
 11  3  1  0  0  0  0
 12 11  1  0  0  0  0
 12 13  1  0  0  0  0
 13 14  1  0  0  0  0
 14 19  1  6  0  0  0
 14 15  1  0  0  0  0
 14 16  1  0  0  0  0
 17 16  1  0  0  0  0
 18 17  1  0  0  0  0
 19 18  1  6  0  0  0
 19 20  1  0  0  0  0
 21 24  1  6  0  0  0
 21 20  1  0  0  0  0
 23 22  1  0  0  0  0
 24 25  1  0  0  0  0
M  END
>  <minimizedAffinity>
-9.01920605

$$$$

 OpenBabel12271915153D

 25 29  0  0  1  0  0  0  0  0999 V2000
   21.7060   61.8750   32.4440 C   0  0  1  0  0  0  0  0  0  0  0  0
   22.7200   62.9770   32.4590 C   0  0  1  0  0  0  0  0  0  0  0  0
   22.3290   64.4210   32.2550 C   0  0  0  0  0  0  0  0  0  0  0  0
   20.9810   64.7510   32.0800 C   0  0  0  0  0  0  0  0  0  0  0  0
   20.6330   66.1170   31.9560 C   0  0  0  0  0  0  0  0  0  0  0  0
   19.3780   66.5810   31.8770 O   0  0  0  0  0  0  0  0  0  0  0  0
   19.5280   67.9810   32.1090 C   0  0  0  0  0  0  0  0  0  0  0  0
   20.9170   68.3220   31.8920 O   0  0  0  0  0  0  0  0  0  0  0  0
   21.5300   67.1080   31.9720 C   0  0  0  0  0  0  0  0  0  0  0  0
   22.8680   66.8470   32.1100 C   0  0  0  0  0  0  0  0  0  0  0  0
   23.2860   65.4980   32.2780 C   0  0  0  0  0  0  0  0  0  0  0  0
   24.7680   65.4540   32.4850 C   0  0  0  0  0  0  0  0  0  0  0  0
   25.2200   64.2290   33.3010 C   0  0  0  0  0  0  0  0  0  0  0  0
   24.1770   63.8650   34.3310 N   0  0  2  0  0  0  0  0  0  0  0  0
   23.6130   64.6780   34.6260 H   0  0  0  0  0  0  0  0  0  0  0  0
   24.8660   63.2680   35.5270 C   0  0  0  0  0  0  0  0  0  0  0  0
   25.4060   61.9950   34.9100 C   0  0  0  0  0  0  0  0  0  0  0  0
   24.2920   61.5420   33.9510 C   0  0  0  0  0  0  0  0  0  0  0  0
   23.3390   62.7390   33.8500 C   0  0  2  0  0  0  0  0  0  0  0  0
   22.0790   62.5040   34.6290 C   0  0  0  0  0  0  0  0  0  0  0  0
   21.1460   61.9970   33.8280 C   0  0  1  0  0  0  0  0  0  0  0  0
   20.7330   61.9240   31.4320 O   0  0  0  0  0  0  0  0  0  0  0  0
   21.1480   62.1980   30.6010 H   0  0  0  0  0  0  0  0  0  0  0  0
   19.8710   61.7340   34.1930 O   0  0  0  0  0  0  0  0  0  0  0  0
   18.9800   62.7980   34.5440 C   0  0  0  0  0  0  0  0  0  0  0  0
  1 22  1  6  0  0  0
  1  2  1  0  0  0  0
  1 21  1  0  0  0  0
  2 19  1  1  0  0  0
  3 11  1  0  0  0  0
  3  2  1  0  0  0  0
  4  3  2  0  0  0  0
  5  9  2  0  0  0  0
  5  4  1  0  0  0  0
  6  5  1  0  0  0  0
  6  7  1  0  0  0  0
  8  9  1  0  0  0  0
  8  7  1  0  0  0  0
  9 10  1  0  0  0  0
 10 11  2  0  0  0  0
 11 12  1  0  0  0  0
 12 13  1  0  0  0  0
 13 14  1  0  0  0  0
 14 19  1  6  0  0  0
 14 15  1  0  0  0  0
 14 16  1  0  0  0  0
 17 16  1  0  0  0  0
 18 17  1  0  0  0  0
 19 18  1  6  0  0  0
 19 20  1  0  0  0  0
 21 24  1  6  0  0  0
 21 20  1  0  0  0  0
 23 22  1  0  0  0  0
 24 25  1  0  0  0  0
M  END
>  <minimizedAffinity>
-8.94486523

$$$$

 OpenBabel12271915153D

 25 29  0  0  1  0  0  0  0  0999 V2000
   18.9760   68.3200   30.7780 C   0  0  1  0  0  0  0  0  0  0  0  0
   18.2710   66.9990   30.7950 C   0  0  1  0  0  0  0  0  0  0  0  0
   18.8830   65.7780   31.4370 C   0  0  0  0  0  0  0  0  0  0  0  0
   20.1290   65.8820   32.0650 C   0  0  0  0  0  0  0  0  0  0  0  0
   20.6520   64.7400   32.7160 C   0  0  0  0  0  0  0  0  0  0  0  0
   21.7840   64.7220   33.4340 O   0  0  0  0  0  0  0  0  0  0  0  0
   21.7050   63.4880   34.1460 C   0  0  0  0  0  0  0  0  0  0  0  0
   20.7260   62.6530   33.4830 O   0  0  0  0  0  0  0  0  0  0  0  0
   20.0280   63.5580   32.7400 C   0  0  0  0  0  0  0  0  0  0  0  0
   18.8210   63.3850   32.1180 C   0  0  0  0  0  0  0  0  0  0  0  0
   18.2170   64.5000   31.4750 C   0  0  0  0  0  0  0  0  0  0  0  0
   16.8790   64.1050   30.9330 C   0  0  0  0  0  0  0  0  0  0  0  0
   15.9020   65.2900   30.8320 C   0  0  0  0  0  0  0  0  0  0  0  0
   16.1410   66.2710   31.9570 N   0  0  2  0  0  0  0  0  0  0  0  0
   16.5400   65.8190   32.7950 H   0  0  0  0  0  0  0  0  0  0  0  0
   14.8350   66.9270   32.3100 C   0  0  0  0  0  0  0  0  0  0  0  0
   14.5780   67.7030   31.0350 C   0  0  0  0  0  0  0  0  0  0  0  0
   15.9710   68.1980   30.6110 C   0  0  0  0  0  0  0  0  0  0  0  0
   16.9580   67.4160   31.4860 C   0  0  2  0  0  0  0  0  0  0  0  0
   17.5300   68.2790   32.5720 C   0  0  0  0  0  0  0  0  0  0  0  0
   18.6810   68.8080   32.1620 C   0  0  1  0  0  0  0  0  0  0  0  0
   20.3450   68.3020   30.4620 O   0  0  0  0  0  0  0  0  0  0  0  0
   20.5000   67.6730   29.7440 H   0  0  0  0  0  0  0  0  0  0  0  0
   19.4920   69.5780   32.9220 O   0  0  0  0  0  0  0  0  0  0  0  0
   19.1060   70.9090   33.2810 C   0  0  0  0  0  0  0  0  0  0  0  0
  1 22  1  1  0  0  0
  1  2  1  0  0  0  0
  1 21  1  0  0  0  0
  2  3  1  0  0  0  0
  2 19  1  1  0  0  0
  3 11  2  0  0  0  0
  3  4  1  0  0  0  0
  4  5  2  0  0  0  0
  5  9  1  0  0  0  0
  5  6  1  0  0  0  0
  6  7  1  0  0  0  0
  8  7  1  0  0  0  0
  9  8  1  0  0  0  0
 10  9  2  0  0  0  0
 11 10  1  0  0  0  0
 12 11  1  0  0  0  0
 13 12  1  0  0  0  0
 13 14  1  0  0  0  0
 14 19  1  6  0  0  0
 14 16  1  0  0  0  0
 14 15  1  0  0  0  0
 17 16  1  0  0  0  0
 18 17  1  0  0  0  0
 19 18  1  6  0  0  0
 19 20  1  0  0  0  0
 21 20  1  0  0  0  0
 21 24  1  1  0  0  0
 23 22  1  0  0  0  0
 24 25  1  0  0  0  0
M  END
>  <minimizedAffinity>
-7.5446105

$$$$

 OpenBabel12271915153D

 25 29  0  0  1  0  0  0  0  0999 V2000
   19.4140   62.1970   34.2400 C   0  0  1  0  0  0  0  0  0  0  0  0
   19.5090   63.5300   33.5640 C   0  0  1  0  0  0  0  0  0  0  0  0
   20.8310   64.1020   33.1130 C   0  0  0  0  0  0  0  0  0  0  0  0
   22.0010   63.3580   33.2990 C   0  0  0  0  0  0  0  0  0  0  0  0
   23.2200   63.8880   32.8090 C   0  0  0  0  0  0  0  0  0  0  0  0
   24.3960   63.2450   32.8350 O   0  0  0  0  0  0  0  0  0  0  0  0
   25.2110   64.0130   31.9500 C   0  0  0  0  0  0  0  0  0  0  0  0
   24.5890   65.3080   31.7820 O   0  0  0  0  0  0  0  0  0  0  0  0
   23.3130   65.0740   32.2010 C   0  0  0  0  0  0  0  0  0  0  0  0
   22.2080   65.8620   32.0160 C   0  0  0  0  0  0  0  0  0  0  0  0
   20.9430   65.3760   32.4490 C   0  0  0  0  0  0  0  0  0  0  0  0
   19.8750   66.3590   32.0820 C   0  0  0  0  0  0  0  0  0  0  0  0
   18.4980   65.6980   31.8880 C   0  0  0  0  0  0  0  0  0  0  0  0
   18.6530   64.3100   31.3100 N   0  0  2  0  0  0  0  0  0  0  0  0
   19.5140   64.2110   30.7490 H   0  0  0  0  0  0  0  0  0  0  0  0
   17.4540   64.0060   30.4560 C   0  0  0  0  0  0  0  0  0  0  0  0
   16.3760   63.9730   31.5190 C   0  0  0  0  0  0  0  0  0  0  0  0
   17.0590   63.3020   32.7230 C   0  0  0  0  0  0  0  0  0  0  0  0
   18.5530   63.2870   32.3790 C   0  0  2  0  0  0  0  0  0  0  0  0
   19.0110   61.9120   31.9890 C   0  0  0  0  0  0  0  0  0  0  0  0
   19.4930   61.2810   33.0580 C   0  0  1  0  0  0  0  0  0  0  0  0
   20.3690   61.9230   35.2340 O   0  0  0  0  0  0  0  0  0  0  0  0
   20.5120   62.7170   35.7680 H   0  0  0  0  0  0  0  0  0  0  0  0
   20.0530   60.0510   33.0430 O   0  0  0  0  0  0  0  0  0  0  0  0
   19.2360   58.8800   32.9520 C   0  0  0  0  0  0  0  0  0  0  0  0
  1 22  1  1  0  0  0
  2 19  1  6  0  0  0
  2  1  1  0  0  0  0
  3  4  1  0  0  0  0
  3  2  1  0  0  0  0
  5  6  1  0  0  0  0
  5  4  2  0  0  0  0
  7  6  1  0  0  0  0
  8  7  1  0  0  0  0
  8  9  1  0  0  0  0
  9  5  1  0  0  0  0
 10  9  2  0  0  0  0
 10 11  1  0  0  0  0
 11  3  2  0  0  0  0
 12 11  1  0  0  0  0
 13 12  1  0  0  0  0
 14 13  1  0  0  0  0
 14 19  1  1  0  0  0
 15 14  1  0  0  0  0
 16 14  1  0  0  0  0
 16 17  1  0  0  0  0
 17 18  1  0  0  0  0
 19 20  1  6  0  0  0
 19 18  1  0  0  0  0
 20 21  1  0  0  0  0
 21 24  1  6  0  0  0
 21  1  1  0  0  0  0
 22 23  1  0  0  0  0
 25 24  1  0  0  0  0
M  END
>  <minimizedAffinity>
-7.5431838

$$$$

 OpenBabel12271915153D

 25 29  0  0  1  0  0  0  0  0999 V2000
   23.5470   62.6570   34.6730 C   0  0  1  0  0  0  0  0  0  0  0  0
   22.3400   63.3040   34.0680 C   0  0  1  0  0  0  0  0  0  0  0  0
   22.4190   64.6350   33.3620 C   0  0  0  0  0  0  0  0  0  0  0  0
   23.6580   65.2740   33.2340 C   0  0  0  0  0  0  0  0  0  0  0  0
   23.7170   66.4890   32.5110 C   0  0  0  0  0  0  0  0  0  0  0  0
   24.8460   67.1570   32.2320 O   0  0  0  0  0  0  0  0  0  0  0  0
   24.4400   68.0880   31.2300 C   0  0  0  0  0  0  0  0  0  0  0  0
   22.9980   68.1970   31.2810 O   0  0  0  0  0  0  0  0  0  0  0  0
   22.6460   67.0720   31.9640 C   0  0  0  0  0  0  0  0  0  0  0  0
   21.4010   66.5110   32.0800 C   0  0  0  0  0  0  0  0  0  0  0  0
   21.2720   65.2700   32.7620 C   0  0  0  0  0  0  0  0  0  0  0  0
   19.8490   64.8090   32.7020 C   0  0  0  0  0  0  0  0  0  0  0  0
   19.7140   63.2780   32.7890 C   0  0  0  0  0  0  0  0  0  0  0  0
   20.8860   62.6030   32.1150 N   0  0  2  0  0  0  0  0  0  0  0  0
   21.2990   63.1840   31.3680 H   0  0  0  0  0  0  0  0  0  0  0  0
   20.4230   61.2930   31.5400 C   0  0  0  0  0  0  0  0  0  0  0  0
   20.1000   60.5460   32.8160 C   0  0  0  0  0  0  0  0  0  0  0  0
   21.2040   60.9810   33.7950 C   0  0  0  0  0  0  0  0  0  0  0  0
   21.8900   62.1750   33.1200 C   0  0  2  0  0  0  0  0  0  0  0  0
   23.2290   61.7930   32.5600 C   0  0  0  0  0  0  0  0  0  0  0  0
   24.1790   62.0570   33.4540 C   0  0  1  0  0  0  0  0  0  0  0  0
   24.4090   63.4890   35.4070 O   0  0  0  0  0  0  0  0  0  0  0  0
   23.8850   64.1050   35.9380 H   0  0  0  0  0  0  0  0  0  0  0  0
   25.5050   61.8990   33.2440 O   0  0  0  0  0  0  0  0  0  0  0  0
   26.2420   62.8680   32.4920 C   0  0  0  0  0  0  0  0  0  0  0  0
  1 22  1  6  0  0  0
  2 19  1  6  0  0  0
  2  1  1  0  0  0  0
  3  2  1  0  0  0  0
  4  3  1  0  0  0  0
  5  4  2  0  0  0  0
  6  5  1  0  0  0  0
  7  8  1  0  0  0  0
  7  6  1  0  0  0  0
  8  9  1  0  0  0  0
  9 10  2  0  0  0  0
  9  5  1  0  0  0  0
 10 11  1  0  0  0  0
 11  3  2  0  0  0  0
 12 11  1  0  0  0  0
 12 13  1  0  0  0  0
 14 13  1  0  0  0  0
 14 19  1  1  0  0  0
 15 14  1  0  0  0  0
 16 14  1  0  0  0  0
 16 17  1  0  0  0  0
 17 18  1  0  0  0  0
 19 20  1  6  0  0  0
 19 18  1  0  0  0  0
 20 21  1  0  0  0  0
 21 24  1  6  0  0  0
 21  1  1  0  0  0  0
 22 23  1  0  0  0  0
 25 24  1  0  0  0  0
M  END
>  <minimizedAffinity>
-7.18717051

$$$$

 OpenBabel12271915153D

 25 29  0  0  1  0  0  0  0  0999 V2000
   15.5930   62.2150   31.5980 C   0  0  1  0  0  0  0  0  0  0  0  0
   16.2940   60.9160   31.8500 C   0  0  1  0  0  0  0  0  0  0  0  0
   17.7360   60.8610   32.2910 C   0  0  0  0  0  0  0  0  0  0  0  0
   18.4360   62.0540   32.5060 C   0  0  0  0  0  0  0  0  0  0  0  0
   19.7670   61.9780   32.9810 C   0  0  0  0  0  0  0  0  0  0  0  0
   20.5190   63.0360   33.3180 O   0  0  0  0  0  0  0  0  0  0  0  0
   21.6040   62.4540   34.0380 C   0  0  0  0  0  0  0  0  0  0  0  0
   21.6450   61.0420   33.7190 O   0  0  0  0  0  0  0  0  0  0  0  0
   20.3980   60.8240   33.2130 C   0  0  0  0  0  0  0  0  0  0  0  0
   19.7770   59.6220   32.9940 C   0  0  0  0  0  0  0  0  0  0  0  0
   18.4260   59.6230   32.5510 C   0  0  0  0  0  0  0  0  0  0  0  0
   17.9290   58.2150   32.4520 C   0  0  0  0  0  0  0  0  0  0  0  0
   16.4050   58.1060   32.6370 C   0  0  0  0  0  0  0  0  0  0  0  0
   15.9150   59.1440   33.6200 N   0  0  2  0  0  0  0  0  0  0  0  0
   16.6410   59.4140   34.3020 H   0  0  0  0  0  0  0  0  0  0  0  0
   14.7190   58.5940   34.3470 C   0  0  0  0  0  0  0  0  0  0  0  0
   13.7330   58.5060   33.2010 C   0  0  0  0  0  0  0  0  0  0  0  0
   14.0200   59.7630   32.3620 C   0  0  0  0  0  0  0  0  0  0  0  0
   15.3460   60.3120   32.9040 C   0  0  2  0  0  0  0  0  0  0  0  0
   15.1290   61.5330   33.7490 C   0  0  0  0  0  0  0  0  0  0  0  0
   15.2580   62.6240   32.9990 C   0  0  1  0  0  0  0  0  0  0  0  0
   16.3060   63.1890   30.8780 O   0  0  0  0  0  0  0  0  0  0  0  0
   16.7900   62.7630   30.1560 H   0  0  0  0  0  0  0  0  0  0  0  0
   15.1950   63.8930   33.4610 O   0  0  0  0  0  0  0  0  0  0  0  0
   14.0370   64.6990   33.2200 C   0  0  0  0  0  0  0  0  0  0  0  0
  1 22  1  1  0  0  0
  1  2  1  0  0  0  0
  1 21  1  0  0  0  0
  2  3  1  0  0  0  0
  2 19  1  1  0  0  0
  3  4  2  0  0  0  0
  3 11  1  0  0  0  0
  4  5  1  0  0  0  0
  5  9  2  0  0  0  0
  5  6  1  0  0  0  0
  6  7  1  0  0  0  0
  8  7  1  0  0  0  0
  9  8  1  0  0  0  0
 10  9  1  0  0  0  0
 11 10  2  0  0  0  0
 12 11  1  0  0  0  0
 12 13  1  0  0  0  0
 13 14  1  0  0  0  0
 14 19  1  6  0  0  0
 14 15  1  0  0  0  0
 14 16  1  0  0  0  0
 17 16  1  0  0  0  0
 18 17  1  0  0  0  0
 19 18  1  6  0  0  0
 19 20  1  0  0  0  0
 21 24  1  1  0  0  0
 21 20  1  0  0  0  0
 23 22  1  0  0  0  0
 25 24  1  0  0  0  0
M  END
>  <minimizedAffinity>
-6.59992933

$$$$

 OpenBabel12271915153D

 25 29  0  0  1  0  0  0  0  0999 V2000
   18.6570   62.9270   33.4400 C   0  0  1  0  0  0  0  0  0  0  0  0
   18.8170   64.3550   33.0180 C   0  0  1  0  0  0  0  0  0  0  0  0
   20.1690   64.9420   32.6930 C   0  0  0  0  0  0  0  0  0  0  0  0
   21.3050   64.1280   32.7530 C   0  0  0  0  0  0  0  0  0  0  0  0
   22.5520   64.6850   32.3810 C   0  0  0  0  0  0  0  0  0  0  0  0
   23.7010   63.9990   32.3020 O   0  0  0  0  0  0  0  0  0  0  0  0
   24.5620   64.8780   31.5800 C   0  0  0  0  0  0  0  0  0  0  0  0
   23.9950   66.2080   31.6430 O   0  0  0  0  0  0  0  0  0  0  0  0
   22.7040   65.9560   31.9980 C   0  0  0  0  0  0  0  0  0  0  0  0
   21.6350   66.8110   31.9480 C   0  0  0  0  0  0  0  0  0  0  0  0
   20.3440   66.3100   32.2720 C   0  0  0  0  0  0  0  0  0  0  0  0
   19.3230   67.3870   32.0770 C   0  0  0  0  0  0  0  0  0  0  0  0
   17.9250   66.8310   31.7510 C   0  0  0  0  0  0  0  0  0  0  0  0
   18.0350   65.5650   30.9340 N   0  0  2  0  0  0  0  0  0  0  0  0
   18.9010   65.5320   30.3730 H   0  0  0  0  0  0  0  0  0  0  0  0
   16.8410   65.4710   30.0250 C   0  0  0  0  0  0  0  0  0  0  0  0
   15.7430   65.2920   31.0530 C   0  0  0  0  0  0  0  0  0  0  0  0
   16.3760   64.3870   32.1230 C   0  0  0  0  0  0  0  0  0  0  0  0
   17.8740   64.3700   31.7980 C   0  0  2  0  0  0  0  0  0  0  0  0
   18.2840   63.0700   31.1710 C   0  0  0  0  0  0  0  0  0  0  0  0
   18.7210   62.2370   32.1120 C   0  0  1  0  0  0  0  0  0  0  0  0
   19.5810   62.4380   34.3780 O   0  0  0  0  0  0  0  0  0  0  0  0
   19.7460   63.1160   35.0490 H   0  0  0  0  0  0  0  0  0  0  0  0
   19.2320   61.0070   31.8810 O   0  0  0  0  0  0  0  0  0  0  0  0
   18.4910   59.8340   32.2280 C   0  0  0  0  0  0  0  0  0  0  0  0
  1 22  1  1  0  0  0
  2 19  1  6  0  0  0
  2  1  1  0  0  0  0
  3  4  1  0  0  0  0
  3  2  1  0  0  0  0
  5  4  2  0  0  0  0
  6  5  1  0  0  0  0
  7  8  1  0  0  0  0
  7  6  1  0  0  0  0
  8  9  1  0  0  0  0
  9  5  1  0  0  0  0
 10  9  2  0  0  0  0
 10 11  1  0  0  0  0
 11  3  2  0  0  0  0
 12 11  1  0  0  0  0
 13 12  1  0  0  0  0
 14 13  1  0  0  0  0
 14 19  1  1  0  0  0
 15 14  1  0  0  0  0
 16 14  1  0  0  0  0
 16 17  1  0  0  0  0
 17 18  1  0  0  0  0
 19 20  1  6  0  0  0
 19 18  1  0  0  0  0
 20 21  1  0  0  0  0
 21 24  1  6  0  0  0
 21  1  1  0  0  0  0
 22 23  1  0  0  0  0
 24 25  1  0  0  0  0
M  END
>  <minimizedAffinity>
-6.49924231

$$$$

 OpenBabel12271915153D

 25 29  0  0  1  0  0  0  0  0999 V2000
   19.8230   63.4520   31.4570 C   0  0  1  0  0  0  0  0  0  0  0  0
   18.6270   64.3280   31.2440 C   0  0  1  0  0  0  0  0  0  0  0  0
   17.2580   63.9430   31.7500 C   0  0  0  0  0  0  0  0  0  0  0  0
   17.0990   62.7520   32.4670 C   0  0  0  0  0  0  0  0  0  0  0  0
   15.8190   62.4440   32.9860 C   0  0  0  0  0  0  0  0  0  0  0  0
   15.5450   61.3890   33.7660 O   0  0  0  0  0  0  0  0  0  0  0  0
   14.2550   61.6950   34.2940 C   0  0  0  0  0  0  0  0  0  0  0  0
   13.6630   62.7180   33.4590 O   0  0  0  0  0  0  0  0  0  0  0  0
   14.7470   63.2220   32.8050 C   0  0  0  0  0  0  0  0  0  0  0  0
   14.8320   64.3860   32.0870 C   0  0  0  0  0  0  0  0  0  0  0  0
   16.0970   64.7770   31.5680 C   0  0  0  0  0  0  0  0  0  0  0  0
   15.9720   66.1060   30.8900 C   0  0  0  0  0  0  0  0  0  0  0  0
   17.2910   66.9010   30.8910 C   0  0  0  0  0  0  0  0  0  0  0  0
   18.0740   66.6270   32.1530 N   0  0  2  0  0  0  0  0  0  0  0  0
   17.4660   66.3650   32.9450 H   0  0  0  0  0  0  0  0  0  0  0  0
   18.8630   67.8570   32.5080 C   0  0  0  0  0  0  0  0  0  0  0  0
   19.8240   67.8990   31.3390 C   0  0  0  0  0  0  0  0  0  0  0  0
   20.1620   66.4210   31.0790 C   0  0  0  0  0  0  0  0  0  0  0  0
   19.1390   65.6260   31.9000 C   0  0  2  0  0  0  0  0  0  0  0  0
   19.7630   65.0350   33.1300 C   0  0  0  0  0  0  0  0  0  0  0  0
   20.1680   63.7940   32.8730 C   0  0  1  0  0  0  0  0  0  0  0  0
   19.6470   62.0760   31.2320 O   0  0  0  0  0  0  0  0  0  0  0  0
   19.0980   61.9480   30.4450 H   0  0  0  0  0  0  0  0  0  0  0  0
   20.7080   62.9520   33.7830 O   0  0  0  0  0  0  0  0  0  0  0  0
   19.9750   62.5770   34.9530 C   0  0  0  0  0  0  0  0  0  0  0  0
  1 22  1  1  0  0  0
  1 21  1  0  0  0  0
  2  1  1  0  0  0  0
  2  3  1  0  0  0  0
  2 19  1  1  0  0  0
  3  4  1  0  0  0  0
  4  5  2  0  0  0  0
  5  6  1  0  0  0  0
  6  7  1  0  0  0  0
  8  7  1  0  0  0  0
  9  5  1  0  0  0  0
  9  8  1  0  0  0  0
 10  9  2  0  0  0  0
 11  3  2  0  0  0  0
 11 10  1  0  0  0  0
 12 13  1  0  0  0  0
 12 11  1  0  0  0  0
 13 14  1  0  0  0  0
 14 19  1  6  0  0  0
 14 16  1  0  0  0  0
 14 15  1  0  0  0  0
 17 16  1  0  0  0  0
 18 17  1  0  0  0  0
 19 18  1  6  0  0  0
 19 20  1  0  0  0  0
 21 20  1  0  0  0  0
 21 24  1  1  0  0  0
 23 22  1  0  0  0  0
 24 25  1  0  0  0  0
M  END
>  <minimizedAffinity>
-6.412848

$$$$

 OpenBabel12271915153D

 25 29  0  0  1  0  0  0  0  0999 V2000
   13.1570   59.2120   32.9480 C   0  0  1  0  0  0  0  0  0  0  0  0
   14.5340   58.6240   32.9830 C   0  0  1  0  0  0  0  0  0  0  0  0
   15.7610   59.4510   32.6860 C   0  0  0  0  0  0  0  0  0  0  0  0
   15.6190   60.8140   32.4010 C   0  0  0  0  0  0  0  0  0  0  0  0
   16.7900   61.5820   32.1880 C   0  0  0  0  0  0  0  0  0  0  0  0
   16.8070   62.9090   32.0000 O   0  0  0  0  0  0  0  0  0  0  0  0
   18.1820   63.2490   32.1760 C   0  0  0  0  0  0  0  0  0  0  0  0
   18.9610   62.0380   32.0420 O   0  0  0  0  0  0  0  0  0  0  0  0
   18.0220   61.0670   32.2220 C   0  0  0  0  0  0  0  0  0  0  0  0
   18.2240   59.7340   32.4670 C   0  0  0  0  0  0  0  0  0  0  0  0
   17.0950   58.9090   32.7260 C   0  0  0  0  0  0  0  0  0  0  0  0
   17.5520   57.5180   33.0400 C   0  0  0  0  0  0  0  0  0  0  0  0
   16.5640   56.7560   33.9420 C   0  0  0  0  0  0  0  0  0  0  0  0
   15.8940   57.7010   34.9110 N   0  0  2  0  0  0  0  0  0  0  0  0
   16.4790   58.5240   35.1270 H   0  0  0  0  0  0  0  0  0  0  0  0
   15.5850   56.9540   36.1790 C   0  0  0  0  0  0  0  0  0  0  0  0
   14.5520   55.9750   35.6620 C   0  0  0  0  0  0  0  0  0  0  0  0
   13.7340   56.7940   34.6490 C   0  0  0  0  0  0  0  0  0  0  0  0
   14.5440   58.0770   34.4240 C   0  0  2  0  0  0  0  0  0  0  0  0
   13.9190   59.2490   35.1230 C   0  0  0  0  0  0  0  0  0  0  0  0
   13.1130   59.8930   34.2820 C   0  0  1  0  0  0  0  0  0  0  0  0
   12.8590   60.0600   31.8690 O   0  0  0  0  0  0  0  0  0  0  0  0
   13.2390   59.6920   31.0580 H   0  0  0  0  0  0  0  0  0  0  0  0
   12.4490   61.0350   34.5670 O   0  0  0  0  0  0  0  0  0  0  0  0
   13.1610   62.2120   34.9620 C   0  0  0  0  0  0  0  0  0  0  0  0
  1 22  1  6  0  0  0
  1  2  1  0  0  0  0
  1 21  1  0  0  0  0
  2 19  1  1  0  0  0
  3 11  1  0  0  0  0
  3  2  1  0  0  0  0
  4  3  2  0  0  0  0
  5  9  2  0  0  0  0
  5  4  1  0  0  0  0
  6  7  1  0  0  0  0
  6  5  1  0  0  0  0
  8  7  1  0  0  0  0
  8  9  1  0  0  0  0
  9 10  1  0  0  0  0
 10 11  2  0  0  0  0
 11 12  1  0  0  0  0
 12 13  1  0  0  0  0
 13 14  1  0  0  0  0
 14 19  1  6  0  0  0
 14 15  1  0  0  0  0
 14 16  1  0  0  0  0
 17 16  1  0  0  0  0
 18 17  1  0  0  0  0
 19 18  1  1  0  0  0
 19 20  1  0  0  0  0
 21 24  1  6  0  0  0
 21 20  1  0  0  0  0
 23 22  1  0  0  0  0
 24 25  1  0  0  0  0
M  END
>  <minimizedAffinity>
-6.39621162

$$$$
