
 OpenBabel12271915123D

 32 35  0  0  1  0  0  0  0  0999 V2000
   21.7970   67.1660   32.1400 C   0  0  0  0  0  0  0  0  0  0  0  0
   22.5190   66.0160   32.4420 C   0  0  0  0  0  0  0  0  0  0  0  0
   23.8960   65.9330   32.3170 C   0  0  0  0  0  0  0  0  0  0  0  0
   24.5110   67.0780   31.8080 C   0  0  0  0  0  0  0  0  0  0  0  0
   23.8590   68.2280   31.4820 N   0  0  0  0  0  0  0  0  0  0  0  0
   22.5140   68.2700   31.6840 C   0  0  0  0  0  0  0  0  0  0  0  0
   24.6200   64.7110   32.7050 C   0  0  0  0  0  0  0  0  0  0  0  0
   24.3930   64.0970   33.9430 C   0  0  0  0  0  0  0  0  0  0  0  0
   25.0390   62.9210   34.3450 C   0  0  0  0  0  0  0  0  0  0  0  0
   25.9590   62.3720   33.4590 C   0  0  0  0  0  0  0  0  0  0  0  0
   26.7640   61.2650   33.5380 N   0  0  0  0  0  0  0  0  0  0  0  0
   26.8460   60.5970   34.2910 H   0  0  0  0  0  0  0  0  0  0  0  0
   27.5130   61.0790   32.4510 N   0  0  0  0  0  0  0  0  0  0  0  0
   27.1930   62.0890   31.6410 C   0  0  0  0  0  0  0  0  0  0  0  0
   27.8180   62.2320   30.3000 C   0  0  0  0  0  0  0  0  0  0  0  0
   26.2200   62.9370   32.2280 C   0  0  0  0  0  0  0  0  0  0  0  0
   25.5470   64.1080   31.8400 C   0  0  0  0  0  0  0  0  0  0  0  0
   20.4650   66.9740   32.2810 O   0  0  0  0  0  0  0  0  0  0  0  0
   19.6670   66.3440   31.2990 C   0  0  0  0  0  0  0  0  0  0  0  0
   18.8030   65.2190   31.8890 C   0  0  1  0  0  0  0  0  0  0  0  0
   17.3640   65.4490   31.4790 N   0  0  0  0  0  0  0  0  0  0  0  0
   17.2230   65.3800   30.4650 H   0  0  0  0  0  0  0  0  0  0  0  0
   17.0520   66.3950   31.7550 H   0  0  0  0  0  0  0  0  0  0  0  0
   16.7280   64.7930   31.9570 H   0  0  0  0  0  0  0  0  0  0  0  0
   19.2950   63.8650   31.3720 C   0  0  0  0  0  0  0  0  0  0  0  0
   20.1730   63.1330   32.3490 C   0  0  0  0  0  0  0  0  0  0  0  0
   21.1170   62.2060   31.8920 C   0  0  0  0  0  0  0  0  0  0  0  0
   21.9090   61.5140   32.8040 C   0  0  0  0  0  0  0  0  0  0  0  0
   21.7770   61.7540   34.1710 C   0  0  0  0  0  0  0  0  0  0  0  0
   22.8420   60.8080   35.4030 Br  0  0  0  0  0  0  0  0  0  0  0  0
   20.8500   62.6810   34.6300 C   0  0  0  0  0  0  0  0  0  0  0  0
   20.0450   63.3640   33.7250 C   0  0  0  0  0  0  0  0  0  0  0  0
  1 18  1  0  0  0  0
  1  2  2  0  0  0  0
  3  2  1  0  0  0  0
  3  7  1  0  0  0  0
  4  3  2  0  0  0  0
  5  6  2  0  0  0  0
  5  4  1  0  0  0  0
  6  1  1  0  0  0  0
  7  8  2  0  0  0  0
  8  9  1  0  0  0  0
 10 11  1  0  0  0  0
 10  9  2  0  0  0  0
 11 12  1  0  0  0  0
 13 11  1  0  0  0  0
 14 16  1  0  0  0  0
 14 13  2  0  0  0  0
 15 14  1  0  0  0  0
 16 10  1  0  0  0  0
 17 16  2  0  0  0  0
 17  7  1  0  0  0  0
 19 18  1  0  0  0  0
 20 19  1  6  0  0  0
 21 23  1  0  0  0  0
 21 20  1  0  0  0  0
 21 24  1  0  0  0  0
 22 21  1  0  0  0  0
 25 20  1  0  0  0  0
 25 26  1  0  0  0  0
 26 32  1  0  0  0  0
 27 26  2  0  0  0  0
 27 28  1  0  0  0  0
 28 29  2  0  0  0  0
 29 31  1  0  0  0  0
 29 30  1  0  0  0  0
 32 31  2  0  0  0  0
M  END
>  <minimizedAffinity>
-8.96965408

$$$$

 OpenBabel12271915123D

 32 35  0  0  1  0  0  0  0  0999 V2000
   20.0920   62.2570   33.6460 C   0  0  0  0  0  0  0  0  0  0  0  0
   20.1190   63.5830   33.2290 C   0  0  0  0  0  0  0  0  0  0  0  0
   19.2310   64.1020   32.3000 C   0  0  0  0  0  0  0  0  0  0  0  0
   18.3330   63.1770   31.7640 C   0  0  0  0  0  0  0  0  0  0  0  0
   18.2650   61.8660   32.1220 N   0  0  0  0  0  0  0  0  0  0  0  0
   19.1230   61.4280   33.0830 C   0  0  0  0  0  0  0  0  0  0  0  0
   19.2640   65.5280   31.9350 C   0  0  0  0  0  0  0  0  0  0  0  0
   20.4500   66.2690   32.0150 C   0  0  0  0  0  0  0  0  0  0  0  0
   20.5350   67.6200   31.6550 C   0  0  0  0  0  0  0  0  0  0  0  0
   19.3640   68.2320   31.2210 C   0  0  0  0  0  0  0  0  0  0  0  0
   19.0920   69.5140   30.8190 N   0  0  0  0  0  0  0  0  0  0  0  0
   19.7210   70.3010   30.7520 H   0  0  0  0  0  0  0  0  0  0  0  0
   17.8180   69.6980   30.4690 N   0  0  0  0  0  0  0  0  0  0  0  0
   17.2420   68.5090   30.6490 C   0  0  0  0  0  0  0  0  0  0  0  0
   15.8000   68.2970   30.3540 C   0  0  0  0  0  0  0  0  0  0  0  0
   18.1700   67.5480   31.1240 C   0  0  0  0  0  0  0  0  0  0  0  0
   18.1130   66.1880   31.4760 C   0  0  0  0  0  0  0  0  0  0  0  0
   21.0980   61.9810   34.5070 O   0  0  0  0  0  0  0  0  0  0  0  0
   22.2260   61.2050   34.1520 C   0  0  0  0  0  0  0  0  0  0  0  0
   23.3610   61.3280   35.1810 C   0  0  1  0  0  0  0  0  0  0  0  0
   23.5320   59.9940   35.8750 N   0  0  0  0  0  0  0  0  0  0  0  0
   23.8390   59.2500   35.2390 H   0  0  0  0  0  0  0  0  0  0  0  0
   22.6380   59.6790   36.2870 H   0  0  0  0  0  0  0  0  0  0  0  0
   24.1940   60.0630   36.6620 H   0  0  0  0  0  0  0  0  0  0  0  0
   24.6570   61.7310   34.4720 C   0  0  0  0  0  0  0  0  0  0  0  0
   24.5640   63.0490   33.7550 C   0  0  0  0  0  0  0  0  0  0  0  0
   25.2140   63.2330   32.5290 C   0  0  0  0  0  0  0  0  0  0  0  0
   25.1430   64.4640   31.8830 C   0  0  0  0  0  0  0  0  0  0  0  0
   24.4100   65.5100   32.4430 C   0  0  0  0  0  0  0  0  0  0  0  0
   24.3250   67.1760   31.5720 Br  0  0  0  0  0  0  0  0  0  0  0  0
   23.7520   65.3300   33.6530 C   0  0  0  0  0  0  0  0  0  0  0  0
   23.8330   64.1070   34.3120 C   0  0  0  0  0  0  0  0  0  0  0  0
  1 18  1  0  0  0  0
  2  1  1  0  0  0  0
  3  2  2  0  0  0  0
  4  5  2  0  0  0  0
  4  3  1  0  0  0  0
  5  6  1  0  0  0  0
  6  1  2  0  0  0  0
  7  8  1  0  0  0  0
  7  3  1  0  0  0  0
  9  8  2  0  0  0  0
 10  9  1  0  0  0  0
 11 10  1  0  0  0  0
 12 11  1  0  0  0  0
 13 14  2  0  0  0  0
 13 11  1  0  0  0  0
 14 16  1  0  0  0  0
 15 14  1  0  0  0  0
 16 10  2  0  0  0  0
 16 17  1  0  0  0  0
 17  7  2  0  0  0  0
 19 18  1  0  0  0  0
 20 19  1  6  0  0  0
 20 21  1  0  0  0  0
 21 23  1  0  0  0  0
 21 24  1  0  0  0  0
 22 21  1  0  0  0  0
 25 20  1  0  0  0  0
 26 32  1  0  0  0  0
 26 25  1  0  0  0  0
 27 26  2  0  0  0  0
 28 29  2  0  0  0  0
 28 27  1  0  0  0  0
 29 31  1  0  0  0  0
 30 29  1  0  0  0  0
 31 32  2  0  0  0  0
M  END
>  <minimizedAffinity>
-8.80751896

$$$$

 OpenBabel12271915123D

 32 35  0  0  1  0  0  0  0  0999 V2000
   21.7330   67.2060   31.9370 C   0  0  0  0  0  0  0  0  0  0  0  0
   22.3780   66.0300   32.3010 C   0  0  0  0  0  0  0  0  0  0  0  0
   23.7560   65.9170   32.3840 C   0  0  0  0  0  0  0  0  0  0  0  0
   24.4640   67.0630   32.0160 C   0  0  0  0  0  0  0  0  0  0  0  0
   23.8910   68.2390   31.6380 N   0  0  0  0  0  0  0  0  0  0  0  0
   22.5320   68.3070   31.6360 C   0  0  0  0  0  0  0  0  0  0  0  0
   24.3890   64.6650   32.8310 C   0  0  0  0  0  0  0  0  0  0  0  0
   23.9660   64.0160   33.9980 C   0  0  0  0  0  0  0  0  0  0  0  0
   24.5200   62.8110   34.4490 C   0  0  0  0  0  0  0  0  0  0  0  0
   25.5530   62.2700   33.6920 C   0  0  0  0  0  0  0  0  0  0  0  0
   26.3150   61.1410   33.8510 N   0  0  0  0  0  0  0  0  0  0  0  0
   26.2690   60.4470   34.5830 H   0  0  0  0  0  0  0  0  0  0  0  0
   27.2170   60.9730   32.8830 N   0  0  0  0  0  0  0  0  0  0  0  0
   27.0430   62.0180   32.0720 C   0  0  0  0  0  0  0  0  0  0  0  0
   27.8670   62.1890   30.8470 C   0  0  0  0  0  0  0  0  0  0  0  0
   26.0080   62.8690   32.5360 C   0  0  0  0  0  0  0  0  0  0  0  0
   25.4250   64.0690   32.0940 C   0  0  0  0  0  0  0  0  0  0  0  0
   20.3920   67.0430   31.8680 O   0  0  0  0  0  0  0  0  0  0  0  0
   19.5620   67.8160   31.0240 C   0  0  0  0  0  0  0  0  0  0  0  0
   18.6000   68.7120   31.8190 C   0  0  1  0  0  0  0  0  0  0  0  0
   17.6390   67.8290   32.5860 N   0  0  0  0  0  0  0  0  0  0  0  0
   18.1070   67.2560   33.2980 H   0  0  0  0  0  0  0  0  0  0  0  0
   17.1580   67.1720   31.9500 H   0  0  0  0  0  0  0  0  0  0  0  0
   16.8940   68.3850   33.0330 H   0  0  0  0  0  0  0  0  0  0  0  0
   19.3960   69.5980   32.7810 C   0  0  0  0  0  0  0  0  0  0  0  0
   18.8450   70.9910   32.9080 C   0  0  0  0  0  0  0  0  0  0  0  0
   17.9050   71.2900   33.9010 C   0  0  0  0  0  0  0  0  0  0  0  0
   17.3810   72.5770   33.9970 C   0  0  0  0  0  0  0  0  0  0  0  0
   17.8030   73.5740   33.1190 C   0  0  0  0  0  0  0  0  0  0  0  0
   17.0850   75.3090   33.2450 Br  0  0  0  0  0  0  0  0  0  0  0  0
   18.7450   73.2860   32.1390 C   0  0  0  0  0  0  0  0  0  0  0  0
   19.2610   71.9990   32.0280 C   0  0  0  0  0  0  0  0  0  0  0  0
  1  2  2  0  0  0  0
  2  3  1  0  0  0  0
  3  7  1  0  0  0  0
  4  3  2  0  0  0  0
  5  4  1  0  0  0  0
  6  5  2  0  0  0  0
  6  1  1  0  0  0  0
  7  8  2  0  0  0  0
  8  9  1  0  0  0  0
 10 11  1  0  0  0  0
 10  9  2  0  0  0  0
 11 12  1  0  0  0  0
 13 11  1  0  0  0  0
 14 16  1  0  0  0  0
 14 13  2  0  0  0  0
 15 14  1  0  0  0  0
 16 10  1  0  0  0  0
 17 16  2  0  0  0  0
 17  7  1  0  0  0  0
 18  1  1  0  0  0  0
 19 18  1  0  0  0  0
 20 19  1  1  0  0  0
 20 21  1  0  0  0  0
 20 25  1  0  0  0  0
 21 24  1  0  0  0  0
 21 22  1  0  0  0  0
 23 21  1  0  0  0  0
 25 26  1  0  0  0  0
 26 27  2  0  0  0  0
 27 28  1  0  0  0  0
 29 30  1  0  0  0  0
 29 28  2  0  0  0  0
 31 29  1  0  0  0  0
 32 31  2  0  0  0  0
 32 26  1  0  0  0  0
M  END
>  <minimizedAffinity>
-8.79396248

$$$$

 OpenBabel12271915123D

 32 35  0  0  1  0  0  0  0  0999 V2000
   21.7220   67.1880   31.8640 C   0  0  0  0  0  0  0  0  0  0  0  0
   22.3990   66.0230   32.2080 C   0  0  0  0  0  0  0  0  0  0  0  0
   23.7750   65.9620   32.3580 C   0  0  0  0  0  0  0  0  0  0  0  0
   24.4490   67.1530   32.0810 C   0  0  0  0  0  0  0  0  0  0  0  0
   23.8460   68.3210   31.7270 N   0  0  0  0  0  0  0  0  0  0  0  0
   22.4880   68.3340   31.6560 C   0  0  0  0  0  0  0  0  0  0  0  0
   24.4370   64.7170   32.7810 C   0  0  0  0  0  0  0  0  0  0  0  0
   24.0670   64.0660   33.9640 C   0  0  0  0  0  0  0  0  0  0  0  0
   24.6510   62.8670   34.3930 C   0  0  0  0  0  0  0  0  0  0  0  0
   25.6580   62.3350   33.5960 C   0  0  0  0  0  0  0  0  0  0  0  0
   26.4380   61.2140   33.7250 N   0  0  0  0  0  0  0  0  0  0  0  0
   26.4270   60.5200   34.4590 H   0  0  0  0  0  0  0  0  0  0  0  0
   27.3010   61.0540   32.7210 N   0  0  0  0  0  0  0  0  0  0  0  0
   27.0850   62.0960   31.9180 C   0  0  0  0  0  0  0  0  0  0  0  0
   27.8570   62.2740   30.6600 C   0  0  0  0  0  0  0  0  0  0  0  0
   26.0610   62.9370   32.4220 C   0  0  0  0  0  0  0  0  0  0  0  0
   25.4480   64.1310   32.0030 C   0  0  0  0  0  0  0  0  0  0  0  0
   20.3950   66.9740   31.7170 O   0  0  0  0  0  0  0  0  0  0  0  0
   19.4100   67.7970   32.3090 C   0  0  0  0  0  0  0  0  0  0  0  0
   17.9870   67.2750   32.0520 C   0  0  1  0  0  0  0  0  0  0  0  0
   17.0790   68.4560   31.7850 N   0  0  0  0  0  0  0  0  0  0  0  0
   17.3280   68.9630   30.9270 H   0  0  0  0  0  0  0  0  0  0  0  0
   17.1330   69.1410   32.5570 H   0  0  0  0  0  0  0  0  0  0  0  0
   16.0910   68.1660   31.7340 H   0  0  0  0  0  0  0  0  0  0  0  0
   17.9950   66.3240   30.8520 C   0  0  0  0  0  0  0  0  0  0  0  0
   17.9170   64.8730   31.2360 C   0  0  0  0  0  0  0  0  0  0  0  0
   19.0780   64.1710   31.5790 C   0  0  0  0  0  0  0  0  0  0  0  0
   19.0010   62.8200   31.9100 C   0  0  0  0  0  0  0  0  0  0  0  0
   17.7680   62.1690   31.9180 C   0  0  0  0  0  0  0  0  0  0  0  0
   17.6690   60.3400   32.3540 Br  0  0  0  0  0  0  0  0  0  0  0  0
   16.6110   62.8630   31.5900 C   0  0  0  0  0  0  0  0  0  0  0  0
   16.6830   64.2080   31.2430 C   0  0  0  0  0  0  0  0  0  0  0  0
  1  2  2  0  0  0  0
  2  3  1  0  0  0  0
  3  7  1  0  0  0  0
  4  3  2  0  0  0  0
  5  4  1  0  0  0  0
  6  5  2  0  0  0  0
  6  1  1  0  0  0  0
  7  8  2  0  0  0  0
  8  9  1  0  0  0  0
 10 11  1  0  0  0  0
 10  9  2  0  0  0  0
 11 12  1  0  0  0  0
 13 11  1  0  0  0  0
 14 16  1  0  0  0  0
 14 13  2  0  0  0  0
 15 14  1  0  0  0  0
 16 10  1  0  0  0  0
 17 16  2  0  0  0  0
 17  7  1  0  0  0  0
 18  1  1  0  0  0  0
 18 19  1  0  0  0  0
 20 25  1  6  0  0  0
 20 19  1  0  0  0  0
 21 20  1  0  0  0  0
 21 23  1  0  0  0  0
 22 21  1  0  0  0  0
 24 21  1  0  0  0  0
 25 26  1  0  0  0  0
 26 32  2  0  0  0  0
 26 27  1  0  0  0  0
 27 28  2  0  0  0  0
 28 29  1  0  0  0  0
 29 30  1  0  0  0  0
 31 29  2  0  0  0  0
 32 31  1  0  0  0  0
M  END
>  <minimizedAffinity>
-8.51738644

$$$$

 OpenBabel12271915123D

 32 35  0  0  1  0  0  0  0  0999 V2000
   20.6160   61.6860   33.7410 C   0  0  0  0  0  0  0  0  0  0  0  0
   20.0690   62.8250   33.1600 C   0  0  0  0  0  0  0  0  0  0  0  0
   19.0350   62.7820   32.2390 C   0  0  0  0  0  0  0  0  0  0  0  0
   18.6120   61.4990   31.8880 C   0  0  0  0  0  0  0  0  0  0  0  0
   19.1150   60.3470   32.4120 N   0  0  0  0  0  0  0  0  0  0  0  0
   20.0870   60.4550   33.3570 C   0  0  0  0  0  0  0  0  0  0  0  0
   18.4520   64.0210   31.6970 C   0  0  0  0  0  0  0  0  0  0  0  0
   17.2340   64.0060   31.0050 C   0  0  0  0  0  0  0  0  0  0  0  0
   16.6290   65.1610   30.4930 C   0  0  0  0  0  0  0  0  0  0  0  0
   17.3050   66.3620   30.6790 C   0  0  0  0  0  0  0  0  0  0  0  0
   17.0160   67.6470   30.3000 N   0  0  0  0  0  0  0  0  0  0  0  0
   16.2130   67.9890   29.7910 H   0  0  0  0  0  0  0  0  0  0  0  0
   17.9380   68.5300   30.6840 N   0  0  0  0  0  0  0  0  0  0  0  0
   18.8540   67.8060   31.3280 C   0  0  0  0  0  0  0  0  0  0  0  0
   20.0580   68.4400   31.9270 C   0  0  0  0  0  0  0  0  0  0  0  0
   18.5070   66.4310   31.3520 C   0  0  0  0  0  0  0  0  0  0  0  0
   19.0860   65.2610   31.8720 C   0  0  0  0  0  0  0  0  0  0  0  0
   21.6530   61.9860   34.5560 O   0  0  0  0  0  0  0  0  0  0  0  0
   22.7370   61.1070   34.7810 C   0  0  0  0  0  0  0  0  0  0  0  0
   24.0920   61.7710   34.4880 C   0  0  1  0  0  0  0  0  0  0  0  0
   25.1950   60.8090   34.8730 N   0  0  0  0  0  0  0  0  0  0  0  0
   25.1960   59.9550   34.3030 H   0  0  0  0  0  0  0  0  0  0  0  0
   25.0900   60.5060   35.8560 H   0  0  0  0  0  0  0  0  0  0  0  0
   26.1220   61.2570   34.8150 H   0  0  0  0  0  0  0  0  0  0  0  0
   24.1840   62.1210   33.0000 C   0  0  0  0  0  0  0  0  0  0  0  0
   24.1000   63.5960   32.7250 C   0  0  0  0  0  0  0  0  0  0  0  0
   25.1860   64.4310   33.0130 C   0  0  0  0  0  0  0  0  0  0  0  0
   25.0910   65.8000   32.7780 C   0  0  0  0  0  0  0  0  0  0  0  0
   23.9250   66.3410   32.2390 C   0  0  0  0  0  0  0  0  0  0  0  0
   23.7960   68.1940   31.9330 Br  0  0  0  0  0  0  0  0  0  0  0  0
   22.8480   65.5160   31.9390 C   0  0  0  0  0  0  0  0  0  0  0  0
   22.9300   64.1490   32.1870 C   0  0  0  0  0  0  0  0  0  0  0  0
  1 18  1  0  0  0  0
  2  1  2  0  0  0  0
  3  2  1  0  0  0  0
  4  3  2  0  0  0  0
  4  5  1  0  0  0  0
  5  6  2  0  0  0  0
  6  1  1  0  0  0  0
  7 17  1  0  0  0  0
  7  3  1  0  0  0  0
  8  7  2  0  0  0  0
  9 10  2  0  0  0  0
  9  8  1  0  0  0  0
 10 16  1  0  0  0  0
 11 10  1  0  0  0  0
 11 13  1  0  0  0  0
 12 11  1  0  0  0  0
 13 14  2  0  0  0  0
 14 16  1  0  0  0  0
 14 15  1  0  0  0  0
 16 17  2  0  0  0  0
 18 19  1  0  0  0  0
 20 25  1  6  0  0  0
 20 19  1  0  0  0  0
 20 21  1  0  0  0  0
 21 23  1  0  0  0  0
 22 21  1  0  0  0  0
 24 21  1  0  0  0  0
 26 25  1  0  0  0  0
 26 27  2  0  0  0  0
 28 27  1  0  0  0  0
 29 28  2  0  0  0  0
 30 29  1  0  0  0  0
 31 32  2  0  0  0  0
 31 29  1  0  0  0  0
 32 26  1  0  0  0  0
M  END
>  <minimizedAffinity>
-8.46472073

$$$$

 OpenBabel12271915123D

 32 35  0  0  1  0  0  0  0  0999 V2000
   20.0260   65.9370   31.8990 C   0  0  0  0  0  0  0  0  0  0  0  0
   20.0490   64.5720   32.1600 C   0  0  0  0  0  0  0  0  0  0  0  0
   18.9550   63.7450   31.9640 C   0  0  0  0  0  0  0  0  0  0  0  0
   17.7960   64.3950   31.5350 C   0  0  0  0  0  0  0  0  0  0  0  0
   17.7070   65.7280   31.2750 N   0  0  0  0  0  0  0  0  0  0  0  0
   18.8310   66.4780   31.4270 C   0  0  0  0  0  0  0  0  0  0  0  0
   19.0490   62.2950   32.2000 C   0  0  0  0  0  0  0  0  0  0  0  0
   20.2900   61.6630   32.3440 C   0  0  0  0  0  0  0  0  0  0  0  0
   20.4280   60.2920   32.5940 C   0  0  0  0  0  0  0  0  0  0  0  0
   19.2580   59.5460   32.6790 C   0  0  0  0  0  0  0  0  0  0  0  0
   19.0330   58.2100   32.8890 N   0  0  0  0  0  0  0  0  0  0  0  0
   19.7070   57.4720   33.0360 H   0  0  0  0  0  0  0  0  0  0  0  0
   17.7390   57.8890   32.9050 N   0  0  0  0  0  0  0  0  0  0  0  0
   17.1010   59.0410   32.6960 C   0  0  0  0  0  0  0  0  0  0  0  0
   15.6160   59.1060   32.6530 C   0  0  0  0  0  0  0  0  0  0  0  0
   18.0100   60.1190   32.5440 C   0  0  0  0  0  0  0  0  0  0  0  0
   17.8970   61.5000   32.3100 C   0  0  0  0  0  0  0  0  0  0  0  0
   21.1940   66.5330   32.2310 O   0  0  0  0  0  0  0  0  0  0  0  0
   22.4350   65.8550   32.2260 C   0  0  0  0  0  0  0  0  0  0  0  0
   23.5690   66.7240   31.6590 C   0  0  1  0  0  0  0  0  0  0  0  0
   23.0950   68.1610   31.6020 N   0  0  0  0  0  0  0  0  0  0  0  0
   22.9070   68.5550   32.5310 H   0  0  0  0  0  0  0  0  0  0  0  0
   22.2130   68.2340   31.0680 H   0  0  0  0  0  0  0  0  0  0  0  0
   23.7740   68.7600   31.1100 H   0  0  0  0  0  0  0  0  0  0  0  0
   24.8070   66.6050   32.5520 C   0  0  0  0  0  0  0  0  0  0  0  0
   25.0490   65.2100   33.0580 C   0  0  0  0  0  0  0  0  0  0  0  0
   25.6990   64.2690   32.2510 C   0  0  0  0  0  0  0  0  0  0  0  0
   25.8970   62.9720   32.7170 C   0  0  0  0  0  0  0  0  0  0  0  0
   25.4670   62.6120   33.9940 C   0  0  0  0  0  0  0  0  0  0  0  0
   25.7270   60.8550   34.6170 Br  0  0  0  0  0  0  0  0  0  0  0  0
   24.8320   63.5450   34.8040 C   0  0  0  0  0  0  0  0  0  0  0  0
   24.6160   64.8380   34.3380 C   0  0  0  0  0  0  0  0  0  0  0  0
  1  2  2  0  0  0  0
  1 18  1  0  0  0  0
  3  2  1  0  0  0  0
  3  7  1  0  0  0  0
  4  3  2  0  0  0  0
  5  6  2  0  0  0  0
  5  4  1  0  0  0  0
  6  1  1  0  0  0  0
  7 17  2  0  0  0  0
  7  8  1  0  0  0  0
  8  9  2  0  0  0  0
  9 10  1  0  0  0  0
 10 11  1  0  0  0  0
 11 13  1  0  0  0  0
 11 12  1  0  0  0  0
 14 13  2  0  0  0  0
 15 14  1  0  0  0  0
 16 10  2  0  0  0  0
 16 14  1  0  0  0  0
 17 16  1  0  0  0  0
 19 18  1  0  0  0  0
 20 19  1  1  0  0  0
 20 25  1  0  0  0  0
 21 20  1  0  0  0  0
 21 22  1  0  0  0  0
 23 21  1  0  0  0  0
 24 21  1  0  0  0  0
 25 26  1  0  0  0  0
 26 32  2  0  0  0  0
 27 28  2  0  0  0  0
 27 26  1  0  0  0  0
 28 29  1  0  0  0  0
 29 30  1  0  0  0  0
 29 31  2  0  0  0  0
 32 31  1  0  0  0  0
M  END
>  <minimizedAffinity>
-8.42039871

$$$$

 OpenBabel12271915123D

 32 35  0  0  1  0  0  0  0  0999 V2000
   20.3950   66.0200   32.1850 C   0  0  0  0  0  0  0  0  0  0  0  0
   21.4100   65.0960   32.4030 C   0  0  0  0  0  0  0  0  0  0  0  0
   22.7550   65.4130   32.3090 C   0  0  0  0  0  0  0  0  0  0  0  0
   23.0240   66.7270   31.9200 C   0  0  0  0  0  0  0  0  0  0  0  0
   22.0760   67.6730   31.6810 N   0  0  0  0  0  0  0  0  0  0  0  0
   20.7730   67.3190   31.8480 C   0  0  0  0  0  0  0  0  0  0  0  0
   23.7930   64.4120   32.6060 C   0  0  0  0  0  0  0  0  0  0  0  0
   25.0410   64.4510   31.9730 C   0  0  0  0  0  0  0  0  0  0  0  0
   26.0670   63.5360   32.2420 C   0  0  0  0  0  0  0  0  0  0  0  0
   25.7940   62.5390   33.1720 C   0  0  0  0  0  0  0  0  0  0  0  0
   26.5450   61.4940   33.6470 N   0  0  0  0  0  0  0  0  0  0  0  0
   27.4910   61.2370   33.4040 H   0  0  0  0  0  0  0  0  0  0  0  0
   25.9050   60.7540   34.5530 N   0  0  0  0  0  0  0  0  0  0  0  0
   24.7060   61.3260   34.6730 C   0  0  0  0  0  0  0  0  0  0  0  0
   23.6860   60.7900   35.6130 C   0  0  0  0  0  0  0  0  0  0  0  0
   24.5810   62.4540   33.8230 C   0  0  0  0  0  0  0  0  0  0  0  0
   23.5730   63.3940   33.5490 C   0  0  0  0  0  0  0  0  0  0  0  0
   19.1700   65.4520   32.2730 O   0  0  0  0  0  0  0  0  0  0  0  0
   18.5140   64.8590   31.1700 C   0  0  0  0  0  0  0  0  0  0  0  0
   17.5200   63.7690   31.6040 C   0  0  1  0  0  0  0  0  0  0  0  0
   16.9260   63.1360   30.3640 N   0  0  0  0  0  0  0  0  0  0  0  0
   17.6230   62.6400   29.7970 H   0  0  0  0  0  0  0  0  0  0  0  0
   16.5060   63.8550   29.7520 H   0  0  0  0  0  0  0  0  0  0  0  0
   16.1600   62.4880   30.6050 H   0  0  0  0  0  0  0  0  0  0  0  0
   18.2450   62.7160   32.4470 C   0  0  0  0  0  0  0  0  0  0  0  0
   17.5010   61.4140   32.5500 C   0  0  0  0  0  0  0  0  0  0  0  0
   16.1550   61.4000   32.9330 C   0  0  0  0  0  0  0  0  0  0  0  0
   15.4790   60.1880   33.0500 C   0  0  0  0  0  0  0  0  0  0  0  0
   16.1340   58.9890   32.7700 C   0  0  0  0  0  0  0  0  0  0  0  0
   15.2210   57.3520   32.9410 Br  0  0  0  0  0  0  0  0  0  0  0  0
   17.4670   58.9980   32.3790 C   0  0  0  0  0  0  0  0  0  0  0  0
   18.1520   60.2040   32.2750 C   0  0  0  0  0  0  0  0  0  0  0  0
  1 18  1  0  0  0  0
  1  2  2  0  0  0  0
  3  2  1  0  0  0  0
  3  7  1  0  0  0  0
  4  3  2  0  0  0  0
  5  6  2  0  0  0  0
  5  4  1  0  0  0  0
  6  1  1  0  0  0  0
  7 17  2  0  0  0  0
  8  9  2  0  0  0  0
  8  7  1  0  0  0  0
  9 10  1  0  0  0  0
 10 11  1  0  0  0  0
 10 16  2  0  0  0  0
 11 13  1  0  0  0  0
 12 11  1  0  0  0  0
 13 14  2  0  0  0  0
 14 15  1  0  0  0  0
 16 14  1  0  0  0  0
 17 16  1  0  0  0  0
 19 18  1  0  0  0  0
 20 19  1  6  0  0  0
 20 25  1  0  0  0  0
 21 24  1  0  0  0  0
 21 20  1  0  0  0  0
 22 21  1  0  0  0  0
 23 21  1  0  0  0  0
 25 26  1  0  0  0  0
 26 27  2  0  0  0  0
 27 28  1  0  0  0  0
 29 30  1  0  0  0  0
 29 28  2  0  0  0  0
 31 29  1  0  0  0  0
 32 31  2  0  0  0  0
 32 26  1  0  0  0  0
M  END
>  <minimizedAffinity>
-8.38524151

$$$$

 OpenBabel12271915123D

 32 35  0  0  1  0  0  0  0  0999 V2000
   23.6510   65.9110   31.9540 C   0  0  0  0  0  0  0  0  0  0  0  0
   22.2630   65.9830   31.9800 C   0  0  0  0  0  0  0  0  0  0  0  0
   21.5640   67.1740   31.8750 C   0  0  0  0  0  0  0  0  0  0  0  0
   22.3610   68.3190   31.7990 C   0  0  0  0  0  0  0  0  0  0  0  0
   23.7220   68.3150   31.7830 N   0  0  0  0  0  0  0  0  0  0  0  0
   24.3510   67.1100   31.8270 C   0  0  0  0  0  0  0  0  0  0  0  0
   20.0920   67.1900   31.8480 C   0  0  0  0  0  0  0  0  0  0  0  0
   19.3740   68.3550   32.1450 C   0  0  0  0  0  0  0  0  0  0  0  0
   17.9760   68.4250   32.1080 C   0  0  0  0  0  0  0  0  0  0  0  0
   17.2960   67.2580   31.7770 C   0  0  0  0  0  0  0  0  0  0  0  0
   15.9580   66.9730   31.6690 N   0  0  0  0  0  0  0  0  0  0  0  0
   15.1700   67.5870   31.8110 H   0  0  0  0  0  0  0  0  0  0  0  0
   15.7160   65.7100   31.3180 N   0  0  0  0  0  0  0  0  0  0  0  0
   16.9210   65.1540   31.1960 C   0  0  0  0  0  0  0  0  0  0  0  0
   17.0780   63.7290   30.7990 C   0  0  0  0  0  0  0  0  0  0  0  0
   17.9540   66.0840   31.4770 C   0  0  0  0  0  0  0  0  0  0  0  0
   19.3590   66.0430   31.5040 C   0  0  0  0  0  0  0  0  0  0  0  0
   24.0930   64.6460   32.1380 O   0  0  0  0  0  0  0  0  0  0  0  0
   24.8160   64.2390   33.2830 C   0  0  0  0  0  0  0  0  0  0  0  0
   24.0740   63.1570   34.0830 C   0  0  1  0  0  0  0  0  0  0  0  0
   24.9040   62.7990   35.2970 N   0  0  0  0  0  0  0  0  0  0  0  0
   25.0080   63.5820   35.9540 H   0  0  0  0  0  0  0  0  0  0  0  0
   25.8600   62.5210   35.0180 H   0  0  0  0  0  0  0  0  0  0  0  0
   24.5100   61.9870   35.7950 H   0  0  0  0  0  0  0  0  0  0  0  0
   22.7010   63.6820   34.5110 C   0  0  0  0  0  0  0  0  0  0  0  0
   21.5550   62.8590   33.9910 C   0  0  0  0  0  0  0  0  0  0  0  0
   21.7970   61.6370   33.3540 C   0  0  0  0  0  0  0  0  0  0  0  0
   20.7330   60.8920   32.8530 C   0  0  0  0  0  0  0  0  0  0  0  0
   19.4240   61.3500   33.0010 C   0  0  0  0  0  0  0  0  0  0  0  0
   17.9880   60.3460   32.3130 Br  0  0  0  0  0  0  0  0  0  0  0  0
   19.1770   62.5570   33.6430 C   0  0  0  0  0  0  0  0  0  0  0  0
   20.2370   63.3140   34.1310 C   0  0  0  0  0  0  0  0  0  0  0  0
  1  2  1  0  0  0  0
  1 18  1  0  0  0  0
  3  2  2  0  0  0  0
  4  3  1  0  0  0  0
  5  4  2  0  0  0  0
  5  6  1  0  0  0  0
  6  1  2  0  0  0  0
  7  3  1  0  0  0  0
  7  8  2  0  0  0  0
  9  8  1  0  0  0  0
 10  9  2  0  0  0  0
 11 10  1  0  0  0  0
 11 12  1  0  0  0  0
 13 11  1  0  0  0  0
 14 13  2  0  0  0  0
 14 16  1  0  0  0  0
 15 14  1  0  0  0  0
 16 17  2  0  0  0  0
 16 10  1  0  0  0  0
 17  7  1  0  0  0  0
 18 19  1  0  0  0  0
 20 19  1  1  0  0  0
 20 25  1  0  0  0  0
 20 21  1  0  0  0  0
 21 24  1  0  0  0  0
 21 22  1  0  0  0  0
 23 21  1  0  0  0  0
 26 32  1  0  0  0  0
 26 25  1  0  0  0  0
 27 26  2  0  0  0  0
 28 29  2  0  0  0  0
 28 27  1  0  0  0  0
 29 31  1  0  0  0  0
 30 29  1  0  0  0  0
 31 32  2  0  0  0  0
M  END
>  <minimizedAffinity>
-8.35778046

$$$$

 OpenBabel12271915123D

 32 35  0  0  1  0  0  0  0  0999 V2000
   23.7040   65.9490   31.7020 C   0  0  0  0  0  0  0  0  0  0  0  0
   22.3180   66.0330   31.7830 C   0  0  0  0  0  0  0  0  0  0  0  0
   21.6340   67.2360   31.8370 C   0  0  0  0  0  0  0  0  0  0  0  0
   22.4450   68.3730   31.8630 C   0  0  0  0  0  0  0  0  0  0  0  0
   23.8050   68.3560   31.8000 N   0  0  0  0  0  0  0  0  0  0  0  0
   24.4170   67.1470   31.6870 C   0  0  0  0  0  0  0  0  0  0  0  0
   20.1630   67.2710   31.8620 C   0  0  0  0  0  0  0  0  0  0  0  0
   19.4040   66.1870   31.4050 C   0  0  0  0  0  0  0  0  0  0  0  0
   18.0040   66.1650   31.4320 C   0  0  0  0  0  0  0  0  0  0  0  0
   17.3650   67.2980   31.9240 C   0  0  0  0  0  0  0  0  0  0  0  0
   16.0390   67.6140   32.0720 N   0  0  0  0  0  0  0  0  0  0  0  0
   15.2290   67.0560   31.8460 H   0  0  0  0  0  0  0  0  0  0  0  0
   15.8410   68.8240   32.5970 N   0  0  0  0  0  0  0  0  0  0  0  0
   17.0660   69.3130   32.7950 C   0  0  0  0  0  0  0  0  0  0  0  0
   17.2730   70.6600   33.3880 C   0  0  0  0  0  0  0  0  0  0  0  0
   18.0650   68.3930   32.3860 C   0  0  0  0  0  0  0  0  0  0  0  0
   19.4700   68.3850   32.3640 C   0  0  0  0  0  0  0  0  0  0  0  0
   24.1320   64.6660   31.7270 O   0  0  0  0  0  0  0  0  0  0  0  0
   24.9750   64.1530   32.7400 C   0  0  0  0  0  0  0  0  0  0  0  0
   24.4880   62.7940   33.2660 C   0  0  1  0  0  0  0  0  0  0  0  0
   25.6640   62.0610   33.8750 N   0  0  0  0  0  0  0  0  0  0  0  0
   26.0450   62.5370   34.7010 H   0  0  0  0  0  0  0  0  0  0  0  0
   26.4400   61.9860   33.1950 H   0  0  0  0  0  0  0  0  0  0  0  0
   25.4140   61.0930   34.1250 H   0  0  0  0  0  0  0  0  0  0  0  0
   23.3920   63.0080   34.3130 C   0  0  0  0  0  0  0  0  0  0  0  0
   22.0000   62.9180   33.7520 C   0  0  0  0  0  0  0  0  0  0  0  0
   20.9290   63.5190   34.4230 C   0  0  0  0  0  0  0  0  0  0  0  0
   19.6390   63.4110   33.9090 C   0  0  0  0  0  0  0  0  0  0  0  0
   19.4130   62.7210   32.7190 C   0  0  0  0  0  0  0  0  0  0  0  0
   17.6660   62.5660   32.0340 Br  0  0  0  0  0  0  0  0  0  0  0  0
   20.4740   62.1320   32.0420 C   0  0  0  0  0  0  0  0  0  0  0  0
   21.7630   62.2230   32.5580 C   0  0  0  0  0  0  0  0  0  0  0  0
  1 18  1  0  0  0  0
  1  2  1  0  0  0  0
  2  3  2  0  0  0  0
  3  7  1  0  0  0  0
  3  4  1  0  0  0  0
  5  4  2  0  0  0  0
  6  1  2  0  0  0  0
  6  5  1  0  0  0  0
  7 17  2  0  0  0  0
  8  9  2  0  0  0  0
  8  7  1  0  0  0  0
  9 10  1  0  0  0  0
 10 11  1  0  0  0  0
 10 16  2  0  0  0  0
 11 13  1  0  0  0  0
 12 11  1  0  0  0  0
 13 14  2  0  0  0  0
 14 15  1  0  0  0  0
 16 14  1  0  0  0  0
 17 16  1  0  0  0  0
 18 19  1  0  0  0  0
 20 19  1  1  0  0  0
 20 21  1  0  0  0  0
 20 25  1  0  0  0  0
 21 24  1  0  0  0  0
 21 22  1  0  0  0  0
 23 21  1  0  0  0  0
 26 25  1  0  0  0  0
 26 27  2  0  0  0  0
 28 27  1  0  0  0  0
 29 28  2  0  0  0  0
 30 29  1  0  0  0  0
 31 32  2  0  0  0  0
 31 29  1  0  0  0  0
 32 26  1  0  0  0  0
M  END
>  <minimizedAffinity>
-8.3446331

$$$$
