
 OpenBabel12271915153D

 24 27  0  0  0  0  0  0  0  0999 V2000
   21.5810   64.2190   32.1220 N   0  0  0  0  0  0  0  0  0  0  0  0
   20.2160   64.1160   32.1620 C   0  0  0  0  0  0  0  0  0  0  0  0
   19.4180   62.9860   32.2400 N   0  0  0  0  0  0  0  0  0  0  0  0
   17.9630   63.2100   32.3790 C   0  0  0  0  0  0  0  0  0  0  0  0
   17.3610   62.2670   33.4450 C   0  0  0  0  0  0  0  0  0  0  0  0
   17.7990   60.8550   33.2500 N   0  0  0  0  0  0  0  0  0  0  0  0
   16.9910   60.2180   33.2980 H   0  0  0  0  0  0  0  0  0  0  0  0
   18.4510   60.6330   34.0170 H   0  0  0  0  0  0  0  0  0  0  0  0
   18.5600   60.6840   31.9720 C   0  0  0  0  0  0  0  0  0  0  0  0
   19.8160   61.6050   32.0390 C   0  0  0  0  0  0  0  0  0  0  0  0
   19.6980   65.3250   32.1250 N   0  0  0  0  0  0  0  0  0  0  0  0
   20.6950   66.2350   32.0530 C   0  0  0  0  0  0  0  0  0  0  0  0
   20.6420   67.6220   31.9900 C   0  0  0  0  0  0  0  0  0  0  0  0
   21.8190   68.3410   31.9000 C   0  0  0  0  0  0  0  0  0  0  0  0
   23.0380   67.6720   31.8740 C   0  0  0  0  0  0  0  0  0  0  0  0
   23.0890   66.2780   31.9410 C   0  0  0  0  0  0  0  0  0  0  0  0
   21.8940   65.5680   32.0340 C   0  0  0  0  0  0  0  0  0  0  0  0
   22.6160   63.2050   32.0640 C   0  0  0  0  0  0  0  0  0  0  0  0
   23.2670   62.8740   33.3810 C   0  0  0  0  0  0  0  0  0  0  0  0
   22.9890   61.6550   33.9780 C   0  0  0  0  0  0  0  0  0  0  0  0
   23.6470   61.2520   35.1470 C   0  0  0  0  0  0  0  0  0  0  0  0
   24.6040   62.0570   35.7160 C   0  0  0  0  0  0  0  0  0  0  0  0
   24.9070   63.2670   35.1280 C   0  0  0  0  0  0  0  0  0  0  0  0
   24.2430   63.6650   33.9760 C   0  0  0  0  0  0  0  0  0  0  0  0
  1  2  1  0  0  0  0
  2  3  1  0  0  0  0
  3  4  1  0  0  0  0
  4  5  1  0  0  0  0
  6  7  1  0  0  0  0
  6  5  1  0  0  0  0
  6  8  1  0  0  0  0
  9 10  1  0  0  0  0
  9  6  1  0  0  0  0
 10  3  1  0  0  0  0
 11  2  2  0  0  0  0
 12 11  2  0  0  0  0
 13 12  1  0  0  0  0
 14 13  2  0  0  0  0
 15 14  1  0  0  0  0
 15 16  1  0  0  0  0
 16 17  2  0  0  0  0
 17 12  1  0  0  0  0
 17  1  1  0  0  0  0
 18  1  1  0  0  0  0
 18 19  1  0  0  0  0
 19 24  2  0  0  0  0
 19 20  1  0  0  0  0
 20 21  2  0  0  0  0
 21 22  1  0  0  0  0
 23 22  2  0  0  0  0
 24 23  1  0  0  0  0
M  END
>  <minimizedAffinity>
-8.38040447

$$$$

 OpenBabel12271915153D

 24 27  0  0  0  0  0  0  0  0999 V2000
   22.6770   63.7990   33.8400 N   0  0  0  0  0  0  0  0  0  0  0  0
   23.1790   64.6860   32.9250 C   0  0  0  0  0  0  0  0  0  0  0  0
   22.5830   65.7990   32.3530 N   0  0  0  0  0  0  0  0  0  0  0  0
   23.4330   66.6270   31.4720 C   0  0  0  0  0  0  0  0  0  0  0  0
   23.2260   68.1300   31.7630 C   0  0  0  0  0  0  0  0  0  0  0  0
   21.7810   68.4920   31.8220 N   0  0  0  0  0  0  0  0  0  0  0  0
   21.5970   69.3330   31.2560 H   0  0  0  0  0  0  0  0  0  0  0  0
   21.5590   68.6920   32.8090 H   0  0  0  0  0  0  0  0  0  0  0  0
   20.9070   67.3480   31.4050 C   0  0  0  0  0  0  0  0  0  0  0  0
   21.1790   66.1630   32.3820 C   0  0  0  0  0  0  0  0  0  0  0  0
   24.4140   64.3370   32.6290 N   0  0  0  0  0  0  0  0  0  0  0  0
   24.7410   63.2250   33.3260 C   0  0  0  0  0  0  0  0  0  0  0  0
   25.9200   62.4910   33.3430 C   0  0  0  0  0  0  0  0  0  0  0  0
   26.0040   61.3620   34.1370 C   0  0  0  0  0  0  0  0  0  0  0  0
   24.9120   60.9770   34.9070 C   0  0  0  0  0  0  0  0  0  0  0  0
   23.7280   61.7170   34.8910 C   0  0  0  0  0  0  0  0  0  0  0  0
   23.6610   62.8530   34.0870 C   0  0  0  0  0  0  0  0  0  0  0  0
   21.3610   63.6840   34.4360 C   0  0  0  0  0  0  0  0  0  0  0  0
   20.3990   62.7840   33.7050 C   0  0  0  0  0  0  0  0  0  0  0  0
   19.0560   62.8230   34.0430 C   0  0  0  0  0  0  0  0  0  0  0  0
   18.1040   62.0870   33.3260 C   0  0  0  0  0  0  0  0  0  0  0  0
   18.4880   61.3220   32.2510 C   0  0  0  0  0  0  0  0  0  0  0  0
   19.8170   61.2820   31.8880 C   0  0  0  0  0  0  0  0  0  0  0  0
   20.7560   62.0050   32.6100 C   0  0  0  0  0  0  0  0  0  0  0  0
  1 17  1  0  0  0  0
  1 18  1  0  0  0  0
  2  1  1  0  0  0  0
  3 10  1  0  0  0  0
  3  2  1  0  0  0  0
  4  5  1  0  0  0  0
  4  3  1  0  0  0  0
  5  6  1  0  0  0  0
  6  8  1  0  0  0  0
  7  6  1  0  0  0  0
  9  6  1  0  0  0  0
  9 10  1  0  0  0  0
 11  2  2  0  0  0  0
 11 12  2  0  0  0  0
 12 13  1  0  0  0  0
 12 17  1  0  0  0  0
 13 14  2  0  0  0  0
 14 15  1  0  0  0  0
 16 15  1  0  0  0  0
 17 16  2  0  0  0  0
 19 20  1  0  0  0  0
 19 18  1  0  0  0  0
 21 20  2  0  0  0  0
 22 21  1  0  0  0  0
 23 22  2  0  0  0  0
 23 24  1  0  0  0  0
 24 19  2  0  0  0  0
M  END
>  <minimizedAffinity>
-8.18357372

$$$$

 OpenBabel12271915153D

 24 27  0  0  0  0  0  0  0  0999 V2000
   22.3890   62.8870   32.5130 N   0  0  0  0  0  0  0  0  0  0  0  0
   21.2160   62.4450   33.0650 C   0  0  0  0  0  0  0  0  0  0  0  0
   19.9120   62.6330   32.6370 N   0  0  0  0  0  0  0  0  0  0  0  0
   18.8570   61.9290   33.3970 C   0  0  0  0  0  0  0  0  0  0  0  0
   17.8280   61.2850   32.4410 C   0  0  0  0  0  0  0  0  0  0  0  0
   17.3670   62.2400   31.3930 N   0  0  0  0  0  0  0  0  0  0  0  0
   16.3390   62.2240   31.3190 H   0  0  0  0  0  0  0  0  0  0  0  0
   17.7760   61.9290   30.5000 H   0  0  0  0  0  0  0  0  0  0  0  0
   17.8770   63.6250   31.6450 C   0  0  0  0  0  0  0  0  0  0  0  0
   19.4350   63.5660   31.6330 C   0  0  0  0  0  0  0  0  0  0  0  0
   21.4930   61.7460   34.1460 N   0  0  0  0  0  0  0  0  0  0  0  0
   22.8330   61.7210   34.3290 C   0  0  0  0  0  0  0  0  0  0  0  0
   23.5910   61.1180   35.3230 C   0  0  0  0  0  0  0  0  0  0  0  0
   24.9670   61.2540   35.3030 C   0  0  0  0  0  0  0  0  0  0  0  0
   25.5730   61.9900   34.2910 C   0  0  0  0  0  0  0  0  0  0  0  0
   24.8090   62.5930   33.2900 C   0  0  0  0  0  0  0  0  0  0  0  0
   23.4240   62.4440   33.3240 C   0  0  0  0  0  0  0  0  0  0  0  0
   22.6450   63.7450   31.3740 C   0  0  0  0  0  0  0  0  0  0  0  0
   22.8500   65.2010   31.6970 C   0  0  0  0  0  0  0  0  0  0  0  0
   24.1270   65.7330   31.6130 C   0  0  0  0  0  0  0  0  0  0  0  0
   24.3580   67.1020   31.8010 C   0  0  0  0  0  0  0  0  0  0  0  0
   23.3090   67.9530   32.0520 C   0  0  0  0  0  0  0  0  0  0  0  0
   22.0290   67.4460   32.1240 C   0  0  0  0  0  0  0  0  0  0  0  0
   21.8090   66.0870   31.9490 C   0  0  0  0  0  0  0  0  0  0  0  0
  1  2  1  0  0  0  0
  1 17  1  0  0  0  0
  2 11  2  0  0  0  0
  3  2  1  0  0  0  0
  3  4  1  0  0  0  0
  5  4  1  0  0  0  0
  6  9  1  0  0  0  0
  6  5  1  0  0  0  0
  7  6  1  0  0  0  0
  8  6  1  0  0  0  0
 10  9  1  0  0  0  0
 10  3  1  0  0  0  0
 11 12  2  0  0  0  0
 12 13  1  0  0  0  0
 14 13  2  0  0  0  0
 15 14  1  0  0  0  0
 16 17  2  0  0  0  0
 16 15  1  0  0  0  0
 17 12  1  0  0  0  0
 18 19  1  0  0  0  0
 18  1  1  0  0  0  0
 19 24  1  0  0  0  0
 20 19  2  0  0  0  0
 20 21  1  0  0  0  0
 21 22  2  0  0  0  0
 22 23  1  0  0  0  0
 24 23  2  0  0  0  0
M  END
>  <minimizedAffinity>
-8.04033184

$$$$

 OpenBabel12271915153D

 24 27  0  0  0  0  0  0  0  0999 V2000
   20.1160   64.0400   32.7530 N   0  0  0  0  0  0  0  0  0  0  0  0
   19.2140   64.7540   32.0100 C   0  0  0  0  0  0  0  0  0  0  0  0
   19.1680   66.1130   31.7420 N   0  0  0  0  0  0  0  0  0  0  0  0
   18.1210   66.5700   30.8040 C   0  0  0  0  0  0  0  0  0  0  0  0
   18.6940   67.5900   29.7950 C   0  0  0  0  0  0  0  0  0  0  0  0
   19.4890   68.6550   30.4700 N   0  0  0  0  0  0  0  0  0  0  0  0
   19.2120   69.5850   30.1260 H   0  0  0  0  0  0  0  0  0  0  0  0
   20.4790   68.4870   30.2350 H   0  0  0  0  0  0  0  0  0  0  0  0
   19.3780   68.5660   31.9610 C   0  0  0  0  0  0  0  0  0  0  0  0
   19.9190   67.1690   32.3960 C   0  0  0  0  0  0  0  0  0  0  0  0
   18.3160   63.9250   31.5210 N   0  0  0  0  0  0  0  0  0  0  0  0
   18.5990   62.6690   31.9340 C   0  0  0  0  0  0  0  0  0  0  0  0
   17.9410   61.4720   31.6810 C   0  0  0  0  0  0  0  0  0  0  0  0
   18.4210   60.3030   32.2420 C   0  0  0  0  0  0  0  0  0  0  0  0
   19.5530   60.3390   33.0480 C   0  0  0  0  0  0  0  0  0  0  0  0
   20.2150   61.5430   33.2990 C   0  0  0  0  0  0  0  0  0  0  0  0
   19.7190   62.7110   32.7240 C   0  0  0  0  0  0  0  0  0  0  0  0
   21.2440   64.4680   33.5560 C   0  0  0  0  0  0  0  0  0  0  0  0
   22.5970   64.2560   32.9300 C   0  0  0  0  0  0  0  0  0  0  0  0
   23.1160   65.2420   32.1070 C   0  0  0  0  0  0  0  0  0  0  0  0
   24.4130   65.1450   31.5840 C   0  0  0  0  0  0  0  0  0  0  0  0
   25.2070   64.0690   31.8990 C   0  0  0  0  0  0  0  0  0  0  0  0
   24.7150   63.0850   32.7290 C   0  0  0  0  0  0  0  0  0  0  0  0
   23.4260   63.1830   33.2340 C   0  0  0  0  0  0  0  0  0  0  0  0
  1 18  1  0  0  0  0
  2  1  1  0  0  0  0
  3  2  1  0  0  0  0
  3 10  1  0  0  0  0
  4  3  1  0  0  0  0
  5  6  1  0  0  0  0
  5  4  1  0  0  0  0
  6  9  1  0  0  0  0
  7  6  1  0  0  0  0
  8  6  1  0  0  0  0
  9 10  1  0  0  0  0
 11 12  2  0  0  0  0
 11  2  2  0  0  0  0
 12 17  1  0  0  0  0
 13 12  1  0  0  0  0
 13 14  2  0  0  0  0
 14 15  1  0  0  0  0
 15 16  1  0  0  0  0
 17  1  1  0  0  0  0
 17 16  2  0  0  0  0
 19 24  1  0  0  0  0
 19 18  1  0  0  0  0
 20 19  2  0  0  0  0
 21 22  2  0  0  0  0
 21 20  1  0  0  0  0
 22 23  1  0  0  0  0
 23 24  2  0  0  0  0
M  END
>  <minimizedAffinity>
-7.70987749

$$$$

 OpenBabel12271915153D

 24 27  0  0  0  0  0  0  0  0999 V2000
   21.0170   63.2830   32.1570 N   0  0  0  0  0  0  0  0  0  0  0  0
   20.2090   64.3860   32.2300 C   0  0  0  0  0  0  0  0  0  0  0  0
   20.5270   65.7260   32.0810 N   0  0  0  0  0  0  0  0  0  0  0  0
   19.4000   66.6820   32.1050 C   0  0  0  0  0  0  0  0  0  0  0  0
   19.5510   67.7390   30.9870 C   0  0  0  0  0  0  0  0  0  0  0  0
   20.9200   68.3280   30.9590 N   0  0  0  0  0  0  0  0  0  0  0  0
   20.8690   69.3550   30.9050 H   0  0  0  0  0  0  0  0  0  0  0  0
   21.3870   67.9670   30.1140 H   0  0  0  0  0  0  0  0  0  0  0  0
   21.7390   67.8800   32.1300 C   0  0  0  0  0  0  0  0  0  0  0  0
   21.8490   66.3260   32.0670 C   0  0  0  0  0  0  0  0  0  0  0  0
   18.9750   63.9930   32.4670 N   0  0  0  0  0  0  0  0  0  0  0  0
   18.9480   62.6440   32.5640 C   0  0  0  0  0  0  0  0  0  0  0  0
   17.8860   61.7830   32.8080 C   0  0  0  0  0  0  0  0  0  0  0  0
   18.1200   60.4220   32.8820 C   0  0  0  0  0  0  0  0  0  0  0  0
   19.4110   59.9340   32.7090 C   0  0  0  0  0  0  0  0  0  0  0  0
   20.4770   60.8010   32.4610 C   0  0  0  0  0  0  0  0  0  0  0  0
   20.2230   62.1690   32.3880 C   0  0  0  0  0  0  0  0  0  0  0  0
   22.4510   63.1590   31.9900 C   0  0  0  0  0  0  0  0  0  0  0  0
   23.2390   63.0140   33.2650 C   0  0  0  0  0  0  0  0  0  0  0  0
   23.4320   61.7480   33.7930 C   0  0  0  0  0  0  0  0  0  0  0  0
   24.2440   61.5450   34.9170 C   0  0  0  0  0  0  0  0  0  0  0  0
   24.8860   62.6060   35.5070 C   0  0  0  0  0  0  0  0  0  0  0  0
   24.7200   63.8720   34.9870 C   0  0  0  0  0  0  0  0  0  0  0  0
   23.9050   64.0670   33.8810 C   0  0  0  0  0  0  0  0  0  0  0  0
  1  2  1  0  0  0  0
  1 17  1  0  0  0  0
  2 11  2  0  0  0  0
  3  4  1  0  0  0  0
  3  2  1  0  0  0  0
  5  4  1  0  0  0  0
  6  5  1  0  0  0  0
  6  9  1  0  0  0  0
  7  6  1  0  0  0  0
  8  6  1  0  0  0  0
 10  3  1  0  0  0  0
 10  9  1  0  0  0  0
 11 12  2  0  0  0  0
 12 13  1  0  0  0  0
 13 14  2  0  0  0  0
 15 14  1  0  0  0  0
 16 15  1  0  0  0  0
 17 16  2  0  0  0  0
 17 12  1  0  0  0  0
 18  1  1  0  0  0  0
 18 19  1  0  0  0  0
 19 20  2  0  0  0  0
 19 24  1  0  0  0  0
 20 21  1  0  0  0  0
 21 22  2  0  0  0  0
 23 22  1  0  0  0  0
 24 23  2  0  0  0  0
M  END
>  <minimizedAffinity>
-7.47326899

$$$$

 OpenBabel12271915153D

 24 27  0  0  0  0  0  0  0  0999 V2000
   21.4850   64.3060   33.4400 N   0  0  0  0  0  0  0  0  0  0  0  0
   22.8440   64.3900   33.2940 C   0  0  0  0  0  0  0  0  0  0  0  0
   23.8400   63.5660   33.7920 N   0  0  0  0  0  0  0  0  0  0  0  0
   25.2230   63.8610   33.3620 C   0  0  0  0  0  0  0  0  0  0  0  0
   25.9720   62.5620   32.9880 C   0  0  0  0  0  0  0  0  0  0  0  0
   25.8120   61.5080   34.0300 N   0  0  0  0  0  0  0  0  0  0  0  0
   26.7240   61.0910   34.2630 H   0  0  0  0  0  0  0  0  0  0  0  0
   25.1990   60.7810   33.6330 H   0  0  0  0  0  0  0  0  0  0  0  0
   25.1220   62.0370   35.2500 C   0  0  0  0  0  0  0  0  0  0  0  0
   23.7140   62.5450   34.8160 C   0  0  0  0  0  0  0  0  0  0  0  0
   23.1260   65.4360   32.5440 N   0  0  0  0  0  0  0  0  0  0  0  0
   21.9760   66.0560   32.1960 C   0  0  0  0  0  0  0  0  0  0  0  0
   21.7670   67.1910   31.4240 C   0  0  0  0  0  0  0  0  0  0  0  0
   20.4770   67.6480   31.2240 C   0  0  0  0  0  0  0  0  0  0  0  0
   19.4080   66.9670   31.7950 C   0  0  0  0  0  0  0  0  0  0  0  0
   19.6190   65.8230   32.5680 C   0  0  0  0  0  0  0  0  0  0  0  0
   20.9250   65.3760   32.7580 C   0  0  0  0  0  0  0  0  0  0  0  0
   20.6620   63.3990   34.2160 C   0  0  0  0  0  0  0  0  0  0  0  0
   19.9830   62.3110   33.4270 C   0  0  0  0  0  0  0  0  0  0  0  0
   20.6400   61.1050   33.2450 C   0  0  0  0  0  0  0  0  0  0  0  0
   20.0130   60.0240   32.6110 C   0  0  0  0  0  0  0  0  0  0  0  0
   18.7150   60.1360   32.1730 C   0  0  0  0  0  0  0  0  0  0  0  0
   18.0390   61.3220   32.3600 C   0  0  0  0  0  0  0  0  0  0  0  0
   18.6700   62.3920   32.9780 C   0  0  0  0  0  0  0  0  0  0  0  0
  1 18  1  0  0  0  0
  2  1  1  0  0  0  0
  2  3  1  0  0  0  0
  3 10  1  0  0  0  0
  4  3  1  0  0  0  0
  5  4  1  0  0  0  0
  5  6  1  0  0  0  0
  6  7  1  0  0  0  0
  6  9  1  0  0  0  0
  8  6  1  0  0  0  0
 10  9  1  0  0  0  0
 11  2  2  0  0  0  0
 12 11  2  0  0  0  0
 12 17  1  0  0  0  0
 13 12  1  0  0  0  0
 14 13  2  0  0  0  0
 14 15  1  0  0  0  0
 15 16  1  0  0  0  0
 16 17  2  0  0  0  0
 17  1  1  0  0  0  0
 19 18  1  0  0  0  0
 20 19  1  0  0  0  0
 21 20  2  0  0  0  0
 22 23  2  0  0  0  0
 22 21  1  0  0  0  0
 23 24  1  0  0  0  0
 24 19  2  0  0  0  0
M  END
>  <minimizedAffinity>
-7.41625404

$$$$

 OpenBabel12271915153D

 24 27  0  0  0  0  0  0  0  0999 V2000
   19.9930   64.6890   32.6730 N   0  0  0  0  0  0  0  0  0  0  0  0
   19.1700   63.7630   32.0900 C   0  0  0  0  0  0  0  0  0  0  0  0
   19.1120   62.3910   32.2760 N   0  0  0  0  0  0  0  0  0  0  0  0
   18.0270   61.6720   31.5750 C   0  0  0  0  0  0  0  0  0  0  0  0
   17.3590   60.6380   32.5090 C   0  0  0  0  0  0  0  0  0  0  0  0
   18.3640   59.7960   33.2170 N   0  0  0  0  0  0  0  0  0  0  0  0
   18.1090   58.8000   33.1510 H   0  0  0  0  0  0  0  0  0  0  0  0
   18.3560   60.0830   34.2070 H   0  0  0  0  0  0  0  0  0  0  0  0
   19.7500   60.0420   32.7060 C   0  0  0  0  0  0  0  0  0  0  0  0
   20.0840   61.5470   32.9450 C   0  0  0  0  0  0  0  0  0  0  0  0
   18.3540   64.3810   31.2620 N   0  0  0  0  0  0  0  0  0  0  0  0
   18.6250   65.7060   31.2760 C   0  0  0  0  0  0  0  0  0  0  0  0
   18.0380   66.7500   30.5740 C   0  0  0  0  0  0  0  0  0  0  0  0
   18.5130   68.0360   30.7480 C   0  0  0  0  0  0  0  0  0  0  0  0
   19.5680   68.2690   31.6230 C   0  0  0  0  0  0  0  0  0  0  0  0
   20.1560   67.2190   32.3310 C   0  0  0  0  0  0  0  0  0  0  0  0
   19.6630   65.9290   32.1450 C   0  0  0  0  0  0  0  0  0  0  0  0
   21.1040   64.5370   33.5910 C   0  0  0  0  0  0  0  0  0  0  0  0
   22.4540   64.3640   32.9460 C   0  0  0  0  0  0  0  0  0  0  0  0
   23.0120   65.4330   32.2640 C   0  0  0  0  0  0  0  0  0  0  0  0
   24.3080   65.3610   31.7360 C   0  0  0  0  0  0  0  0  0  0  0  0
   25.0630   64.2250   31.9060 C   0  0  0  0  0  0  0  0  0  0  0  0
   24.5310   63.1570   32.5960 C   0  0  0  0  0  0  0  0  0  0  0  0
   23.2420   63.2310   33.1060 C   0  0  0  0  0  0  0  0  0  0  0  0
  1 18  1  0  0  0  0
  2  3  1  0  0  0  0
  2  1  1  0  0  0  0
  3 10  1  0  0  0  0
  4  3  1  0  0  0  0
  4  5  1  0  0  0  0
  5  6  1  0  0  0  0
  6  8  1  0  0  0  0
  7  6  1  0  0  0  0
  9 10  1  0  0  0  0
  9  6  1  0  0  0  0
 11 12  2  0  0  0  0
 11  2  2  0  0  0  0
 12 17  1  0  0  0  0
 13 14  2  0  0  0  0
 13 12  1  0  0  0  0
 14 15  1  0  0  0  0
 15 16  1  0  0  0  0
 17 16  2  0  0  0  0
 17  1  1  0  0  0  0
 19 24  1  0  0  0  0
 19 18  1  0  0  0  0
 20 19  2  0  0  0  0
 21 22  2  0  0  0  0
 21 20  1  0  0  0  0
 22 23  1  0  0  0  0
 23 24  2  0  0  0  0
M  END
>  <minimizedAffinity>
-7.37829542

$$$$

 OpenBabel12271915153D

 24 27  0  0  0  0  0  0  0  0999 V2000
   19.6760   64.5350   32.1810 N   0  0  0  0  0  0  0  0  0  0  0  0
   18.9550   63.5540   32.8070 C   0  0  0  0  0  0  0  0  0  0  0  0
   17.6220   63.2050   32.6580 N   0  0  0  0  0  0  0  0  0  0  0  0
   17.1620   62.0140   33.4030 C   0  0  0  0  0  0  0  0  0  0  0  0
   16.2730   61.1180   32.5120 C   0  0  0  0  0  0  0  0  0  0  0  0
   15.2230   61.9040   31.8030 N   0  0  0  0  0  0  0  0  0  0  0  0
   14.3040   61.4490   31.9010 H   0  0  0  0  0  0  0  0  0  0  0  0
   15.4850   61.9280   30.8070 H   0  0  0  0  0  0  0  0  0  0  0  0
   15.1840   63.3250   32.2750 C   0  0  0  0  0  0  0  0  0  0  0  0
   16.5790   63.9590   31.9890 C   0  0  0  0  0  0  0  0  0  0  0  0
   19.7480   62.9090   33.6370 N   0  0  0  0  0  0  0  0  0  0  0  0
   20.9860   63.4510   33.5810 C   0  0  0  0  0  0  0  0  0  0  0  0
   22.1440   63.1150   34.2700 C   0  0  0  0  0  0  0  0  0  0  0  0
   23.2990   63.8440   34.0510 C   0  0  0  0  0  0  0  0  0  0  0  0
   23.2870   64.8990   33.1460 C   0  0  0  0  0  0  0  0  0  0  0  0
   22.1220   65.2340   32.4520 C   0  0  0  0  0  0  0  0  0  0  0  0
   20.9680   64.4880   32.6830 C   0  0  0  0  0  0  0  0  0  0  0  0
   19.2750   65.5640   31.2410 C   0  0  0  0  0  0  0  0  0  0  0  0
   18.9940   66.9140   31.8450 C   0  0  0  0  0  0  0  0  0  0  0  0
   20.0160   67.8480   31.9040 C   0  0  0  0  0  0  0  0  0  0  0  0
   19.7830   69.1530   32.3590 C   0  0  0  0  0  0  0  0  0  0  0  0
   18.5200   69.5390   32.7370 C   0  0  0  0  0  0  0  0  0  0  0  0
   17.4860   68.6290   32.6710 C   0  0  0  0  0  0  0  0  0  0  0  0
   17.7270   67.3350   32.2310 C   0  0  0  0  0  0  0  0  0  0  0  0
  1 17  1  0  0  0  0
  1  2  1  0  0  0  0
  2 11  2  0  0  0  0
  3  2  1  0  0  0  0
  3  4  1  0  0  0  0
  5  4  1  0  0  0  0
  6  7  1  0  0  0  0
  6  9  1  0  0  0  0
  6  5  1  0  0  0  0
  8  6  1  0  0  0  0
 10  9  1  0  0  0  0
 10  3  1  0  0  0  0
 12 11  2  0  0  0  0
 12 13  1  0  0  0  0
 14 13  2  0  0  0  0
 15 14  1  0  0  0  0
 16 17  2  0  0  0  0
 16 15  1  0  0  0  0
 17 12  1  0  0  0  0
 18 19  1  0  0  0  0
 18  1  1  0  0  0  0
 19 20  2  0  0  0  0
 19 24  1  0  0  0  0
 20 21  1  0  0  0  0
 21 22  2  0  0  0  0
 23 22  1  0  0  0  0
 24 23  2  0  0  0  0
M  END
>  <minimizedAffinity>
-7.27742672

$$$$

 OpenBabel12271915153D

 24 27  0  0  0  0  0  0  0  0999 V2000
   21.1360   64.1330   33.0640 N   0  0  0  0  0  0  0  0  0  0  0  0
   20.8520   62.7990   32.9460 C   0  0  0  0  0  0  0  0  0  0  0  0
   19.6290   62.1480   32.9880 N   0  0  0  0  0  0  0  0  0  0  0  0
   19.6410   60.6960   32.7150 C   0  0  0  0  0  0  0  0  0  0  0  0
   18.4830   60.3050   31.7690 C   0  0  0  0  0  0  0  0  0  0  0  0
   17.1830   60.8860   32.2090 N   0  0  0  0  0  0  0  0  0  0  0  0
   16.4470   60.1660   32.2050 H   0  0  0  0  0  0  0  0  0  0  0  0
   16.9380   61.6250   31.5340 H   0  0  0  0  0  0  0  0  0  0  0  0
   17.2980   61.5460   33.5490 C   0  0  0  0  0  0  0  0  0  0  0  0
   18.3550   62.6860   33.4280 C   0  0  0  0  0  0  0  0  0  0  0  0
   21.9760   62.1410   32.7580 N   0  0  0  0  0  0  0  0  0  0  0  0
   23.0080   63.0140   32.7590 C   0  0  0  0  0  0  0  0  0  0  0  0
   24.3710   62.7930   32.6020 C   0  0  0  0  0  0  0  0  0  0  0  0
   25.2420   63.8650   32.6610 C   0  0  0  0  0  0  0  0  0  0  0  0
   24.7460   65.1470   32.8750 C   0  0  0  0  0  0  0  0  0  0  0  0
   23.3760   65.3670   33.0290 C   0  0  0  0  0  0  0  0  0  0  0  0
   22.5120   64.2770   32.9640 C   0  0  0  0  0  0  0  0  0  0  0  0
   20.2830   65.2700   33.3500 C   0  0  0  0  0  0  0  0  0  0  0  0
   19.8230   66.0490   32.1470 C   0  0  0  0  0  0  0  0  0  0  0  0
   18.6280   65.6990   31.5390 C   0  0  0  0  0  0  0  0  0  0  0  0
   18.1010   66.4540   30.4830 C   0  0  0  0  0  0  0  0  0  0  0  0
   18.7560   67.5780   30.0420 C   0  0  0  0  0  0  0  0  0  0  0  0
   19.9380   67.9530   30.6430 C   0  0  0  0  0  0  0  0  0  0  0  0
   20.4600   67.1930   31.6810 C   0  0  0  0  0  0  0  0  0  0  0  0
  1 18  1  0  0  0  0
  2  3  1  0  0  0  0
  2  1  1  0  0  0  0
  3 10  1  0  0  0  0
  4  3  1  0  0  0  0
  5  6  1  0  0  0  0
  5  4  1  0  0  0  0
  6  9  1  0  0  0  0
  7  6  1  0  0  0  0
  8  6  1  0  0  0  0
 10  9  1  0  0  0  0
 11 12  2  0  0  0  0
 11  2  2  0  0  0  0
 12 17  1  0  0  0  0
 13 14  2  0  0  0  0
 13 12  1  0  0  0  0
 14 15  1  0  0  0  0
 15 16  1  0  0  0  0
 17 16  2  0  0  0  0
 17  1  1  0  0  0  0
 19 18  1  0  0  0  0
 20 19  2  0  0  0  0
 21 20  1  0  0  0  0
 22 21  2  0  0  0  0
 22 23  1  0  0  0  0
 23 24  2  0  0  0  0
 24 19  1  0  0  0  0
M  END
>  <minimizedAffinity>
-6.9720602

$$$$
