
 OpenBabel12271915143D

 42 46  0  0  1  0  0  0  0  0999 V2000
   17.7430   61.2650   32.1900 C   0  0  1  0  0  0  0  0  0  0  0  0
   18.9540   62.1070   31.8200 C   0  0  1  0  0  0  0  0  0  0  0  0
   18.7230   63.5570   31.7690 C   0  0  0  0  0  0  0  0  0  0  0  0
   17.7410   63.9240   30.8490 C   0  0  0  0  0  0  0  0  0  0  0  0
   17.4040   65.2730   30.6760 C   0  0  0  0  0  0  0  0  0  0  0  0
   16.4750   65.8500   29.8340 O   0  0  0  0  0  0  0  0  0  0  0  0
   16.6360   67.2770   29.9190 C   0  0  0  0  0  0  0  0  0  0  0  0
   17.5100   67.4870   31.0380 O   0  0  0  0  0  0  0  0  0  0  0  0
   18.0020   66.2340   31.3770 C   0  0  0  0  0  0  0  0  0  0  0  0
   18.9810   65.8940   32.2990 C   0  0  0  0  0  0  0  0  0  0  0  0
   19.3410   64.5490   32.4860 C   0  0  0  0  0  0  0  0  0  0  0  0
   20.3880   64.4100   33.5200 C   0  0  0  0  0  0  0  0  0  0  0  0
   19.9450   63.3570   34.4760 C   0  0  0  0  0  0  0  0  0  0  0  0
   20.1640   61.9810   34.0590 N   0  0  2  0  0  0  0  0  0  0  0  0
   19.5650   61.3880   34.6280 H   0  0  0  0  0  0  0  0  0  0  0  0
   21.5600   61.6320   34.3880 C   0  0  0  0  0  0  0  0  0  0  0  0
   22.3410   61.6060   33.0950 C   0  0  0  0  0  0  0  0  0  0  0  0
   21.3520   61.7450   31.9720 C   0  0  0  0  0  0  0  0  0  0  0  0
   20.0380   61.5880   32.6680 C   0  0  2  0  0  0  0  0  0  0  0  0
   19.7220   60.1370   32.6820 C   0  0  0  0  0  0  0  0  0  0  0  0
   18.4340   59.9420   32.4050 C   0  0  2  0  0  0  0  0  0  0  0  0
   17.8030   58.7440   32.3020 O   0  0  0  0  0  0  0  0  0  0  0  0
   18.2940   57.6370   33.0920 C   0  0  0  0  0  0  0  0  0  0  0  0
   17.1900   61.6670   33.4650 O   0  0  0  0  0  0  0  0  0  0  0  0
   15.8530   61.9730   33.4940 C   0  0  0  0  0  0  0  0  0  0  0  0
   15.4230   63.0720   33.4350 O   0  0  0  0  0  0  0  0  0  0  0  0
   14.8490   60.8230   33.6150 C   0  0  2  0  0  0  0  0  0  0  0  0
   15.5410   59.6940   34.0810 O   0  0  0  0  0  0  0  0  0  0  0  0
   16.5020   59.7870   33.9460 H   0  0  0  0  0  0  0  0  0  0  0  0
   14.1320   60.5860   32.3090 C   0  0  0  0  0  0  0  0  0  0  0  0
   13.1800   59.4000   32.2900 C   0  0  0  0  0  0  0  0  0  0  0  0
   13.6270   58.3120   32.4800 O   0  0  0  0  0  0  0  0  0  0  0  0
   11.8450   59.6060   32.0620 O   0  0  0  0  0  0  0  0  0  0  0  0
   11.1910   58.6170   31.2100 C   0  0  0  0  0  0  0  0  0  0  0  0
   13.8500   61.2540   34.6760 C   0  0  0  0  0  0  0  0  0  0  0  0
   13.5320   60.2420   35.7480 C   0  0  0  0  0  0  0  0  0  0  0  0
   12.0700   59.8440   35.8480 C   0  0  0  0  0  0  0  0  0  0  0  0
   11.9820   58.3310   35.8520 C   0  0  0  0  0  0  0  0  0  0  0  0
   13.3440   57.6760   35.9580 C   0  0  0  0  0  0  0  0  0  0  0  0
   11.1270   57.8520   36.9980 C   0  0  0  0  0  0  0  0  0  0  0  0
   11.3550   57.9250   34.6530 O   0  0  0  0  0  0  0  0  0  0  0  0
   10.4070   58.0640   34.7840 H   0  0  0  0  0  0  0  0  0  0  0  0
  1 21  1  0  0  0  0
  1 24  1  1  0  0  0
  2  1  1  0  0  0  0
  2 19  1  1  0  0  0
  3  2  1  0  0  0  0
  3 11  2  0  0  0  0
  4  3  1  0  0  0  0
  5  4  1  0  0  0  0
  5  9  2  0  0  0  0
  6  7  1  0  0  0  0
  6  5  1  0  0  0  0
  7  8  1  0  0  0  0
  8  9  1  0  0  0  0
  9 10  1  0  0  0  0
 10 11  1  0  0  0  0
 11 12  1  0  0  0  0
 12 13  1  0  0  0  0
 14 19  1  6  0  0  0
 14 16  1  0  0  0  0
 14 13  1  0  0  0  0
 14 15  1  0  0  0  0
 17 16  1  0  0  0  0
 18 17  1  0  0  0  0
 19 18  1  6  0  0  0
 19 20  1  0  0  0  0
 21 22  1  6  0  0  0
 21 20  1  0  0  0  0
 22 23  1  0  0  0  0
 24 25  1  0  0  0  0
 25 27  1  0  0  0  0
 26 25  2  0  0  0  0
 27 30  1  6  0  0  0
 27 28  1  0  0  0  0
 27 35  1  0  0  0  0
 29 28  1  0  0  0  0
 31 30  1  0  0  0  0
 31 32  2  0  0  0  0
 33 31  1  0  0  0  0
 34 33  1  0  0  0  0
 35 36  1  0  0  0  0
 36 37  1  0  0  0  0
 37 38  1  0  0  0  0
 38 39  1  0  0  0  0
 38 40  1  0  0  0  0
 41 42  1  0  0  0  0
 41 38  1  0  0  0  0
M  END
>  <minimizedAffinity>
-7.48161554

$$$$

 OpenBabel12271915143D

 42 46  0  0  1  0  0  0  0  0999 V2000
   19.2510   64.9680   31.2030 C   0  0  1  0  0  0  0  0  0  0  0  0
   19.7420   63.5820   31.5920 C   0  0  1  0  0  0  0  0  0  0  0  0
   21.0210   63.5460   32.3130 C   0  0  0  0  0  0  0  0  0  0  0  0
   22.0750   64.1050   31.5900 C   0  0  0  0  0  0  0  0  0  0  0  0
   23.3650   64.1450   32.1370 C   0  0  0  0  0  0  0  0  0  0  0  0
   24.5350   64.6470   31.6040 O   0  0  0  0  0  0  0  0  0  0  0  0
   25.6070   64.2920   32.4940 C   0  0  0  0  0  0  0  0  0  0  0  0
   24.9610   63.8030   33.6790 O   0  0  0  0  0  0  0  0  0  0  0  0
   23.6210   63.6570   33.3480 C   0  0  0  0  0  0  0  0  0  0  0  0
   22.5900   63.0950   34.0870 C   0  0  0  0  0  0  0  0  0  0  0  0
   21.2890   63.0390   33.5580 C   0  0  0  0  0  0  0  0  0  0  0  0
   20.3460   62.4180   34.5120 C   0  0  0  0  0  0  0  0  0  0  0  0
   19.1590   63.3100   34.6220 C   0  0  0  0  0  0  0  0  0  0  0  0
   18.1720   63.1950   33.5610 N   0  0  2  0  0  0  0  0  0  0  0  0
   17.5960   64.0330   33.5830 H   0  0  0  0  0  0  0  0  0  0  0  0
   17.2920   62.0560   33.8890 C   0  0  0  0  0  0  0  0  0  0  0  0
   17.6600   60.9160   32.9690 C   0  0  0  0  0  0  0  0  0  0  0  0
   18.6280   61.4540   31.9540 C   0  0  0  0  0  0  0  0  0  0  0  0
   18.5680   62.9280   32.1910 C   0  0  2  0  0  0  0  0  0  0  0  0
   17.4760   63.4640   31.3390 C   0  0  0  0  0  0  0  0  0  0  0  0
   17.8520   64.6080   30.7700 C   0  0  2  0  0  0  0  0  0  0  0  0
   17.1210   65.3580   29.9050 O   0  0  0  0  0  0  0  0  0  0  0  0
   15.8700   65.9170   30.3670 C   0  0  0  0  0  0  0  0  0  0  0  0
   19.1280   65.8290   32.3590 O   0  0  0  0  0  0  0  0  0  0  0  0
   19.7160   67.0660   32.2780 C   0  0  0  0  0  0  0  0  0  0  0  0
   20.8790   67.2550   32.3680 O   0  0  0  0  0  0  0  0  0  0  0  0
   18.8140   68.2840   32.0600 C   0  0  2  0  0  0  0  0  0  0  0  0
   17.6730   68.1230   32.8620 O   0  0  0  0  0  0  0  0  0  0  0  0
   17.5580   67.1940   33.1330 H   0  0  0  0  0  0  0  0  0  0  0  0
   18.4940   68.4710   30.5980 C   0  0  0  0  0  0  0  0  0  0  0  0
   17.4620   69.5440   30.2860 C   0  0  0  0  0  0  0  0  0  0  0  0
   17.7810   70.4470   29.5770 O   0  0  0  0  0  0  0  0  0  0  0  0
   16.2030   69.4490   30.8170 O   0  0  0  0  0  0  0  0  0  0  0  0
   15.1240   69.9620   29.9780 C   0  0  0  0  0  0  0  0  0  0  0  0
   19.6010   69.4800   32.5690 C   0  0  0  0  0  0  0  0  0  0  0  0
   18.8390   70.4770   33.4070 C   0  0  0  0  0  0  0  0  0  0  0  0
   18.6560   71.8450   32.7760 C   0  0  0  0  0  0  0  0  0  0  0  0
   17.2150   72.2740   32.9650 C   0  0  0  0  0  0  0  0  0  0  0  0
   17.0430   73.2090   34.1440 C   0  0  0  0  0  0  0  0  0  0  0  0
   16.6970   72.9600   31.7260 C   0  0  0  0  0  0  0  0  0  0  0  0
   16.4350   71.1120   33.1670 O   0  0  0  0  0  0  0  0  0  0  0  0
   16.2930   70.7270   32.2910 H   0  0  0  0  0  0  0  0  0  0  0  0
  1  2  1  0  0  0  0
  1 24  1  1  0  0  0
  2 19  1  1  0  0  0
  2  3  1  0  0  0  0
  3 11  2  0  0  0  0
  4  5  1  0  0  0  0
  4  3  1  0  0  0  0
  5  9  2  0  0  0  0
  6  5  1  0  0  0  0
  6  7  1  0  0  0  0
  7  8  1  0  0  0  0
  9  8  1  0  0  0  0
  9 10  1  0  0  0  0
 11 10  1  0  0  0  0
 11 12  1  0  0  0  0
 12 13  1  0  0  0  0
 14 19  1  6  0  0  0
 14 15  1  0  0  0  0
 14 16  1  0  0  0  0
 14 13  1  0  0  0  0
 17 16  1  0  0  0  0
 18 19  1  0  0  0  0
 18 17  1  0  0  0  0
 19 20  1  6  0  0  0
 21 22  1  6  0  0  0
 21  1  1  0  0  0  0
 21 20  1  0  0  0  0
 22 23  1  0  0  0  0
 25 24  1  0  0  0  0
 25 26  2  0  0  0  0
 27 30  1  6  0  0  0
 27 25  1  0  0  0  0
 27 35  1  0  0  0  0
 27 28  1  0  0  0  0
 28 29  1  0  0  0  0
 31 30  1  0  0  0  0
 31 33  1  0  0  0  0
 32 31  2  0  0  0  0
 34 33  1  0  0  0  0
 35 36  1  0  0  0  0
 37 38  1  0  0  0  0
 37 36  1  0  0  0  0
 38 41  1  0  0  0  0
 38 39  1  0  0  0  0
 40 38  1  0  0  0  0
 42 41  1  0  0  0  0
M  END
>  <minimizedAffinity>
-7.27345943

$$$$

 OpenBabel12271915143D

 42 46  0  0  1  0  0  0  0  0999 V2000
   17.0050   61.4930   32.1980 C   0  0  1  0  0  0  0  0  0  0  0  0
   18.2160   62.2180   31.6310 C   0  0  1  0  0  0  0  0  0  0  0  0
   18.0960   63.6800   31.5530 C   0  0  0  0  0  0  0  0  0  0  0  0
   17.0270   64.1020   30.7620 C   0  0  0  0  0  0  0  0  0  0  0  0
   16.7770   65.4690   30.5820 C   0  0  0  0  0  0  0  0  0  0  0  0
   15.7880   66.0970   29.8520 O   0  0  0  0  0  0  0  0  0  0  0  0
   16.0720   67.5060   29.8560 C   0  0  0  0  0  0  0  0  0  0  0  0
   17.1080   67.6750   30.8350 O   0  0  0  0  0  0  0  0  0  0  0  0
   17.5420   66.3960   31.1540 C   0  0  0  0  0  0  0  0  0  0  0  0
   18.6100   66.0020   31.9460 C   0  0  0  0  0  0  0  0  0  0  0  0
   18.8850   64.6380   32.1370 C   0  0  0  0  0  0  0  0  0  0  0  0
   20.0520   64.4420   33.0220 C   0  0  0  0  0  0  0  0  0  0  0  0
   19.6650   63.4590   34.0720 C   0  0  0  0  0  0  0  0  0  0  0  0
   19.7140   62.0580   33.6860 N   0  0  2  0  0  0  0  0  0  0  0  0
   19.1550   61.5340   34.3560 H   0  0  0  0  0  0  0  0  0  0  0  0
   21.1100   61.6020   33.8350 C   0  0  0  0  0  0  0  0  0  0  0  0
   21.6970   61.4720   32.4490 C   0  0  0  0  0  0  0  0  0  0  0  0
   20.5750   61.6600   31.4680 C   0  0  0  0  0  0  0  0  0  0  0  0
   19.3640   61.6360   32.3430 C   0  0  2  0  0  0  0  0  0  0  0  0
   18.9390   60.2170   32.4600 C   0  0  0  0  0  0  0  0  0  0  0  0
   17.6130   60.1230   32.3700 C   0  0  2  0  0  0  0  0  0  0  0  0
   16.8810   58.9800   32.4040 O   0  0  0  0  0  0  0  0  0  0  0  0
   17.4290   57.8310   33.0900 C   0  0  0  0  0  0  0  0  0  0  0  0
   16.6700   61.9770   33.5190 O   0  0  0  0  0  0  0  0  0  0  0  0
   15.4030   61.7160   33.9740 C   0  0  0  0  0  0  0  0  0  0  0  0
   15.1530   60.9500   34.8390 O   0  0  0  0  0  0  0  0  0  0  0  0
   14.2320   62.4560   33.3230 C   0  0  2  0  0  0  0  0  0  0  0  0
   14.0650   61.9440   32.0260 O   0  0  0  0  0  0  0  0  0  0  0  0
   14.8660   61.4760   31.7250 H   0  0  0  0  0  0  0  0  0  0  0  0
   14.4480   63.9490   33.3500 C   0  0  0  0  0  0  0  0  0  0  0  0
   13.2820   64.7890   32.8520 C   0  0  0  0  0  0  0  0  0  0  0  0
   12.9840   64.7170   31.7010 O   0  0  0  0  0  0  0  0  0  0  0  0
   12.6060   65.5970   33.7270 O   0  0  0  0  0  0  0  0  0  0  0  0
   11.1600   65.6640   33.5370 C   0  0  0  0  0  0  0  0  0  0  0  0
   13.0050   62.1010   34.1470 C   0  0  0  0  0  0  0  0  0  0  0  0
   12.0460   61.1140   33.5300 C   0  0  0  0  0  0  0  0  0  0  0  0
   12.0710   59.7230   34.1370 C   0  0  0  0  0  0  0  0  0  0  0  0
   12.5230   58.7420   33.0740 C   0  0  0  0  0  0  0  0  0  0  0  0
   12.3430   57.3020   33.5060 C   0  0  0  0  0  0  0  0  0  0  0  0
   11.7600   58.9600   31.7910 C   0  0  0  0  0  0  0  0  0  0  0  0
   13.8890   58.9870   32.8040 O   0  0  0  0  0  0  0  0  0  0  0  0
   13.9150   59.7580   32.2220 H   0  0  0  0  0  0  0  0  0  0  0  0
  1 21  1  0  0  0  0
  1 24  1  1  0  0  0
  2  1  1  0  0  0  0
  2 19  1  1  0  0  0
  3  2  1  0  0  0  0
  3 11  2  0  0  0  0
  4  3  1  0  0  0  0
  5  4  1  0  0  0  0
  5  9  2  0  0  0  0
  6  7  1  0  0  0  0
  6  5  1  0  0  0  0
  7  8  1  0  0  0  0
  8  9  1  0  0  0  0
  9 10  1  0  0  0  0
 10 11  1  0  0  0  0
 11 12  1  0  0  0  0
 12 13  1  0  0  0  0
 14 19  1  6  0  0  0
 14 16  1  0  0  0  0
 14 13  1  0  0  0  0
 14 15  1  0  0  0  0
 17 16  1  0  0  0  0
 18 17  1  0  0  0  0
 19 18  1  6  0  0  0
 19 20  1  0  0  0  0
 21 22  1  6  0  0  0
 21 20  1  0  0  0  0
 22 23  1  0  0  0  0
 24 25  1  0  0  0  0
 25 26  2  0  0  0  0
 27 30  1  6  0  0  0
 27 25  1  0  0  0  0
 27 35  1  0  0  0  0
 28 27  1  0  0  0  0
 29 28  1  0  0  0  0
 31 30  1  0  0  0  0
 31 33  1  0  0  0  0
 32 31  2  0  0  0  0
 34 33  1  0  0  0  0
 36 37  1  0  0  0  0
 36 35  1  0  0  0  0
 38 39  1  0  0  0  0
 38 37  1  0  0  0  0
 40 38  1  0  0  0  0
 41 38  1  0  0  0  0
 42 41  1  0  0  0  0
M  END
>  <minimizedAffinity>
-7.15932512

$$$$

 OpenBabel12271915143D

 42 46  0  0  1  0  0  0  0  0999 V2000
   17.5430   61.4770   32.1870 C   0  0  1  0  0  0  0  0  0  0  0  0
   18.7920   62.2400   31.7700 C   0  0  1  0  0  0  0  0  0  0  0  0
   18.6470   63.7000   31.7070 C   0  0  0  0  0  0  0  0  0  0  0  0
   17.6620   64.1160   30.8110 C   0  0  0  0  0  0  0  0  0  0  0  0
   17.4010   65.4810   30.6300 C   0  0  0  0  0  0  0  0  0  0  0  0
   16.4840   66.1030   29.8080 O   0  0  0  0  0  0  0  0  0  0  0  0
   16.7330   67.5180   29.8700 C   0  0  0  0  0  0  0  0  0  0  0  0
   17.6510   67.6880   30.9600 O   0  0  0  0  0  0  0  0  0  0  0  0
   18.0770   66.4120   31.3010 C   0  0  0  0  0  0  0  0  0  0  0  0
   19.0610   66.0240   32.1990 C   0  0  0  0  0  0  0  0  0  0  0  0
   19.3440   64.6610   32.3920 C   0  0  0  0  0  0  0  0  0  0  0  0
   20.4110   64.4710   33.3980 C   0  0  0  0  0  0  0  0  0  0  0  0
   19.9340   63.4580   34.3800 C   0  0  0  0  0  0  0  0  0  0  0  0
   20.0580   62.0670   33.9750 N   0  0  2  0  0  0  0  0  0  0  0  0
   19.4420   61.5180   34.5690 H   0  0  0  0  0  0  0  0  0  0  0  0
   21.4400   61.6370   34.2680 C   0  0  0  0  0  0  0  0  0  0  0  0
   22.1780   61.5500   32.9530 C   0  0  0  0  0  0  0  0  0  0  0  0
   21.1670   61.7350   31.8580 C   0  0  0  0  0  0  0  0  0  0  0  0
   19.8680   61.6670   32.5940 C   0  0  2  0  0  0  0  0  0  0  0  0
   19.4650   60.2370   32.6360 C   0  0  0  0  0  0  0  0  0  0  0  0
   18.1600   60.1170   32.3990 C   0  0  2  0  0  0  0  0  0  0  0  0
   17.4550   58.9580   32.3300 O   0  0  0  0  0  0  0  0  0  0  0  0
   17.9360   57.8150   33.0730 C   0  0  0  0  0  0  0  0  0  0  0  0
   17.0540   61.9260   33.4720 O   0  0  0  0  0  0  0  0  0  0  0  0
   15.7830   62.4430   33.5070 C   0  0  0  0  0  0  0  0  0  0  0  0
   15.5210   63.5730   33.2810 O   0  0  0  0  0  0  0  0  0  0  0  0
   14.6290   61.5040   33.8640 C   0  0  2  0  0  0  0  0  0  0  0  0
   15.0980   60.5870   34.8180 O   0  0  0  0  0  0  0  0  0  0  0  0
   16.0720   60.5480   34.8230 H   0  0  0  0  0  0  0  0  0  0  0  0
   14.0610   60.8450   32.6320 C   0  0  0  0  0  0  0  0  0  0  0  0
   13.5520   59.4240   32.8250 C   0  0  0  0  0  0  0  0  0  0  0  0
   14.3500   58.5500   32.9580 O   0  0  0  0  0  0  0  0  0  0  0  0
   12.2040   59.1840   32.8430 O   0  0  0  0  0  0  0  0  0  0  0  0
   11.5960   59.0970   34.1680 C   0  0  0  0  0  0  0  0  0  0  0  0
   13.5680   62.3780   34.5130 C   0  0  0  0  0  0  0  0  0  0  0  0
   12.3870   62.7500   33.6520 C   0  0  0  0  0  0  0  0  0  0  0  0
   11.8580   64.1590   33.8540 C   0  0  0  0  0  0  0  0  0  0  0  0
   12.2740   65.0040   32.6680 C   0  0  0  0  0  0  0  0  0  0  0  0
   11.0860   65.4980   31.8680 C   0  0  0  0  0  0  0  0  0  0  0  0
   13.0790   66.1970   33.1200 C   0  0  0  0  0  0  0  0  0  0  0  0
   13.1060   64.2180   31.8390 O   0  0  0  0  0  0  0  0  0  0  0  0
   13.9800   64.2210   32.2530 H   0  0  0  0  0  0  0  0  0  0  0  0
  1 21  1  0  0  0  0
  1 24  1  1  0  0  0
  2  1  1  0  0  0  0
  2 19  1  1  0  0  0
  3  2  1  0  0  0  0
  3 11  2  0  0  0  0
  4  3  1  0  0  0  0
  5  4  1  0  0  0  0
  5  9  2  0  0  0  0
  6  7  1  0  0  0  0
  6  5  1  0  0  0  0
  7  8  1  0  0  0  0
  8  9  1  0  0  0  0
  9 10  1  0  0  0  0
 10 11  1  0  0  0  0
 11 12  1  0  0  0  0
 12 13  1  0  0  0  0
 14 19  1  6  0  0  0
 14 16  1  0  0  0  0
 14 13  1  0  0  0  0
 14 15  1  0  0  0  0
 17 16  1  0  0  0  0
 18 17  1  0  0  0  0
 19 18  1  6  0  0  0
 19 20  1  0  0  0  0
 21 22  1  6  0  0  0
 21 20  1  0  0  0  0
 22 23  1  0  0  0  0
 24 25  1  0  0  0  0
 25 27  1  0  0  0  0
 26 25  2  0  0  0  0
 27 30  1  6  0  0  0
 27 35  1  0  0  0  0
 27 28  1  0  0  0  0
 28 29  1  0  0  0  0
 30 31  1  0  0  0  0
 31 33  1  0  0  0  0
 31 32  2  0  0  0  0
 33 34  1  0  0  0  0
 36 37  1  0  0  0  0
 36 35  1  0  0  0  0
 38 40  1  0  0  0  0
 38 37  1  0  0  0  0
 39 38  1  0  0  0  0
 41 42  1  0  0  0  0
 41 38  1  0  0  0  0
M  END
>  <minimizedAffinity>
-7.08256006

$$$$

 OpenBabel12271915143D

 42 46  0  0  1  0  0  0  0  0999 V2000
   17.6780   67.4110   30.5950 C   0  0  1  0  0  0  0  0  0  0  0  0
   16.6240   68.5020   30.7210 C   0  0  1  0  0  0  0  0  0  0  0  0
   15.2320   68.0330   30.7510 C   0  0  0  0  0  0  0  0  0  0  0  0
   14.8680   67.3180   29.6110 C   0  0  0  0  0  0  0  0  0  0  0  0
   13.5710   66.8040   29.4820 C   0  0  0  0  0  0  0  0  0  0  0  0
   13.0070   66.0770   28.4540 O   0  0  0  0  0  0  0  0  0  0  0  0
   11.6030   65.9400   28.7350 C   0  0  0  0  0  0  0  0  0  0  0  0
   11.4490   66.3890   30.0900 O   0  0  0  0  0  0  0  0  0  0  0  0
   12.6570   66.9810   30.4330 C   0  0  0  0  0  0  0  0  0  0  0  0
   12.9940   67.6880   31.5780 C   0  0  0  0  0  0  0  0  0  0  0  0
   14.2870   68.2170   31.7270 C   0  0  0  0  0  0  0  0  0  0  0  0
   14.4370   68.9180   33.0200 C   0  0  0  0  0  0  0  0  0  0  0  0
   15.6780   68.4130   33.6690 C   0  0  0  0  0  0  0  0  0  0  0  0
   16.9260   68.9950   33.2020 N   0  0  2  0  0  0  0  0  0  0  0  0
   17.6810   68.3750   33.4850 H   0  0  0  0  0  0  0  0  0  0  0  0
   17.1210   70.2710   33.9190 C   0  0  0  0  0  0  0  0  0  0  0  0
   16.8320   71.3900   32.9470 C   0  0  0  0  0  0  0  0  0  0  0  0
   16.6610   70.7700   31.5890 C   0  0  0  0  0  0  0  0  0  0  0  0
   17.1100   69.3620   31.8110 C   0  0  2  0  0  0  0  0  0  0  0  0
   18.5760   69.3280   31.5710 C   0  0  0  0  0  0  0  0  0  0  0  0
   18.9060   68.2380   30.8790 C   0  0  2  0  0  0  0  0  0  0  0  0
   20.1510   67.8980   30.4550 O   0  0  0  0  0  0  0  0  0  0  0  0
   21.2340   67.9230   31.4120 C   0  0  0  0  0  0  0  0  0  0  0  0
   17.5640   66.4410   31.6630 O   0  0  0  0  0  0  0  0  0  0  0  0
   17.4610   65.1230   31.2970 C   0  0  0  0  0  0  0  0  0  0  0  0
   16.6250   64.6970   30.5790 O   0  0  0  0  0  0  0  0  0  0  0  0
   18.4910   64.1350   31.8520 C   0  0  2  0  0  0  0  0  0  0  0  0
   19.1020   63.4930   30.7630 O   0  0  0  0  0  0  0  0  0  0  0  0
   18.5660   63.5810   29.9540 H   0  0  0  0  0  0  0  0  0  0  0  0
   17.8550   63.1770   32.8280 C   0  0  0  0  0  0  0  0  0  0  0  0
   17.6970   61.7470   32.3340 C   0  0  0  0  0  0  0  0  0  0  0  0
   16.7250   61.4700   31.7050 O   0  0  0  0  0  0  0  0  0  0  0  0
   18.6660   60.8210   32.6180 O   0  0  0  0  0  0  0  0  0  0  0  0
   18.3040   59.4300   32.3620 C   0  0  0  0  0  0  0  0  0  0  0  0
   19.5330   64.9790   32.5670 C   0  0  0  0  0  0  0  0  0  0  0  0
   20.3850   64.2690   33.5880 C   0  0  0  0  0  0  0  0  0  0  0  0
   21.8170   63.9990   33.1610 C   0  0  0  0  0  0  0  0  0  0  0  0
   22.0480   62.5020   33.1680 C   0  0  0  0  0  0  0  0  0  0  0  0
   23.5190   62.1460   33.1200 C   0  0  0  0  0  0  0  0  0  0  0  0
   21.4410   61.8760   34.3980 C   0  0  0  0  0  0  0  0  0  0  0  0
   21.3920   61.9520   32.0420 O   0  0  0  0  0  0  0  0  0  0  0  0
   20.4560   61.8930   32.2770 H   0  0  0  0  0  0  0  0  0  0  0  0
  1  2  1  0  0  0  0
  1 21  1  0  0  0  0
  1 24  1  1  0  0  0
  2  3  1  0  0  0  0
  2 19  1  1  0  0  0
  3 11  2  0  0  0  0
  4  3  1  0  0  0  0
  5  4  1  0  0  0  0
  5  9  2  0  0  0  0
  6  7  1  0  0  0  0
  6  5  1  0  0  0  0
  7  8  1  0  0  0  0
  8  9  1  0  0  0  0
  9 10  1  0  0  0  0
 10 11  1  0  0  0  0
 11 12  1  0  0  0  0
 12 13  1  0  0  0  0
 14 19  1  6  0  0  0
 14 15  1  0  0  0  0
 14 13  1  0  0  0  0
 14 16  1  0  0  0  0
 17 16  1  0  0  0  0
 18 19  1  0  0  0  0
 18 17  1  0  0  0  0
 19 20  1  6  0  0  0
 21 22  1  6  0  0  0
 21 20  1  0  0  0  0
 22 23  1  0  0  0  0
 25 24  1  0  0  0  0
 25 27  1  0  0  0  0
 26 25  2  0  0  0  0
 27 35  1  1  0  0  0
 27 30  1  0  0  0  0
 28 27  1  0  0  0  0
 29 28  1  0  0  0  0
 31 33  1  0  0  0  0
 31 30  1  0  0  0  0
 32 31  2  0  0  0  0
 34 33  1  0  0  0  0
 35 36  1  0  0  0  0
 37 38  1  0  0  0  0
 37 36  1  0  0  0  0
 38 40  1  0  0  0  0
 39 38  1  0  0  0  0
 41 42  1  0  0  0  0
 41 38  1  0  0  0  0
M  END
>  <minimizedAffinity>
-6.97634697

$$$$

 OpenBabel12271915143D

 42 46  0  0  1  0  0  0  0  0999 V2000
   17.1370   61.3920   32.0900 C   0  0  1  0  0  0  0  0  0  0  0  0
   18.3500   62.1620   31.5880 C   0  0  1  0  0  0  0  0  0  0  0  0
   18.1850   63.6200   31.5190 C   0  0  0  0  0  0  0  0  0  0  0  0
   17.1420   64.0160   30.6820 C   0  0  0  0  0  0  0  0  0  0  0  0
   16.8560   65.3760   30.5030 C   0  0  0  0  0  0  0  0  0  0  0  0
   15.8830   65.9800   29.7330 O   0  0  0  0  0  0  0  0  0  0  0  0
   16.1210   67.3980   29.7640 C   0  0  0  0  0  0  0  0  0  0  0  0
   17.1040   67.5890   30.7930 O   0  0  0  0  0  0  0  0  0  0  0  0
   17.5630   66.3210   31.1190 C   0  0  0  0  0  0  0  0  0  0  0  0
   18.6050   65.9530   31.9580 C   0  0  0  0  0  0  0  0  0  0  0  0
   18.9150   64.5960   32.1480 C   0  0  0  0  0  0  0  0  0  0  0  0
   20.0440   64.4270   33.0870 C   0  0  0  0  0  0  0  0  0  0  0  0
   19.6400   63.4210   34.1080 C   0  0  0  0  0  0  0  0  0  0  0  0
   19.7530   62.0270   33.7110 N   0  0  2  0  0  0  0  0  0  0  0  0
   19.1810   61.4780   34.3480 H   0  0  0  0  0  0  0  0  0  0  0  0
   21.1550   61.6140   33.9210 C   0  0  0  0  0  0  0  0  0  0  0  0
   21.8100   61.5190   32.5640 C   0  0  0  0  0  0  0  0  0  0  0  0
   20.7310   61.6820   31.5320 C   0  0  0  0  0  0  0  0  0  0  0  0
   19.4810   61.6090   32.3490 C   0  0  2  0  0  0  0  0  0  0  0  0
   19.0970   60.1760   32.4320 C   0  0  0  0  0  0  0  0  0  0  0  0
   17.7800   60.0410   32.2790 C   0  0  2  0  0  0  0  0  0  0  0  0
   17.0850   58.8740   32.2660 O   0  0  0  0  0  0  0  0  0  0  0  0
   17.5500   57.7870   33.0980 C   0  0  0  0  0  0  0  0  0  0  0  0
   16.7240   61.8510   33.3990 O   0  0  0  0  0  0  0  0  0  0  0  0
   15.4060   61.6730   33.7320 C   0  0  0  0  0  0  0  0  0  0  0  0
   14.9740   60.6910   34.2270 O   0  0  0  0  0  0  0  0  0  0  0  0
   14.4260   62.8130   33.4460 C   0  0  2  0  0  0  0  0  0  0  0  0
   13.8200   62.5590   32.2050 O   0  0  0  0  0  0  0  0  0  0  0  0
   14.3370   61.9190   31.6820 H   0  0  0  0  0  0  0  0  0  0  0  0
   15.1150   64.1530   33.5090 C   0  0  0  0  0  0  0  0  0  0  0  0
   14.2330   65.3580   33.2180 C   0  0  0  0  0  0  0  0  0  0  0  0
   13.7190   65.4370   32.1470 O   0  0  0  0  0  0  0  0  0  0  0  0
   14.0500   66.3130   34.1830 O   0  0  0  0  0  0  0  0  0  0  0  0
   14.2980   67.6900   33.7640 C   0  0  0  0  0  0  0  0  0  0  0  0
   13.3640   62.7320   34.5300 C   0  0  0  0  0  0  0  0  0  0  0  0
   11.9300   62.7130   34.0650 C   0  0  0  0  0  0  0  0  0  0  0  0
   11.0600   63.8320   34.6090 C   0  0  0  0  0  0  0  0  0  0  0  0
   10.4260   64.5600   33.4410 C   0  0  0  0  0  0  0  0  0  0  0  0
    8.9690   64.1920   33.2560 C   0  0  0  0  0  0  0  0  0  0  0  0
   10.5260   66.0530   33.6270 C   0  0  0  0  0  0  0  0  0  0  0  0
   11.1480   64.2270   32.2720 O   0  0  0  0  0  0  0  0  0  0  0  0
   11.9480   64.7710   32.2850 H   0  0  0  0  0  0  0  0  0  0  0  0
  1 21  1  0  0  0  0
  1 24  1  1  0  0  0
  2  1  1  0  0  0  0
  2 19  1  1  0  0  0
  3  2  1  0  0  0  0
  3 11  2  0  0  0  0
  4  3  1  0  0  0  0
  5  4  1  0  0  0  0
  5  9  2  0  0  0  0
  6  7  1  0  0  0  0
  6  5  1  0  0  0  0
  7  8  1  0  0  0  0
  8  9  1  0  0  0  0
  9 10  1  0  0  0  0
 10 11  1  0  0  0  0
 11 12  1  0  0  0  0
 12 13  1  0  0  0  0
 14 19  1  6  0  0  0
 14 16  1  0  0  0  0
 14 13  1  0  0  0  0
 14 15  1  0  0  0  0
 17 16  1  0  0  0  0
 18 17  1  0  0  0  0
 19 18  1  6  0  0  0
 19 20  1  0  0  0  0
 21 22  1  6  0  0  0
 21 20  1  0  0  0  0
 22 23  1  0  0  0  0
 24 25  1  0  0  0  0
 25 26  2  0  0  0  0
 27 30  1  1  0  0  0
 27 25  1  0  0  0  0
 27 35  1  0  0  0  0
 28 27  1  0  0  0  0
 29 28  1  0  0  0  0
 31 30  1  0  0  0  0
 31 33  1  0  0  0  0
 32 31  2  0  0  0  0
 34 33  1  0  0  0  0
 36 35  1  0  0  0  0
 36 37  1  0  0  0  0
 38 40  1  0  0  0  0
 38 37  1  0  0  0  0
 39 38  1  0  0  0  0
 41 42  1  0  0  0  0
 41 38  1  0  0  0  0
M  END
>  <minimizedAffinity>
-6.7420516

$$$$

 OpenBabel12271915143D

 42 46  0  0  1  0  0  0  0  0999 V2000
   15.3270   65.1590   32.6330 C   0  0  1  0  0  0  0  0  0  0  0  0
   14.5830   66.4620   32.3820 C   0  0  1  0  0  0  0  0  0  0  0  0
   15.3950   67.5580   31.8380 C   0  0  0  0  0  0  0  0  0  0  0  0
   16.4620   67.9130   32.6640 C   0  0  0  0  0  0  0  0  0  0  0  0
   17.3320   68.9450   32.2910 C   0  0  0  0  0  0  0  0  0  0  0  0
   18.4350   69.4510   32.9480 O   0  0  0  0  0  0  0  0  0  0  0  0
   18.8790   70.6130   32.2250 C   0  0  0  0  0  0  0  0  0  0  0  0
   18.1450   70.5860   30.9920 O   0  0  0  0  0  0  0  0  0  0  0  0
   17.1710   69.6110   31.1500 C   0  0  0  0  0  0  0  0  0  0  0  0
   16.1180   69.2760   30.3100 C   0  0  0  0  0  0  0  0  0  0  0  0
   15.2290   68.2490   30.6660 C   0  0  0  0  0  0  0  0  0  0  0  0
   14.1960   68.0470   29.6280 C   0  0  0  0  0  0  0  0  0  0  0  0
   14.1400   66.5920   29.3180 C   0  0  0  0  0  0  0  0  0  0  0  0
   13.3800   65.7690   30.2450 N   0  0  2  0  0  0  0  0  0  0  0  0
   13.6650   64.8030   30.1050 H   0  0  0  0  0  0  0  0  0  0  0  0
   11.9570   65.8610   29.8610 C   0  0  0  0  0  0  0  0  0  0  0  0
   11.2660   66.7390   30.8770 C   0  0  0  0  0  0  0  0  0  0  0  0
   12.2480   67.0030   31.9820 C   0  0  0  0  0  0  0  0  0  0  0  0
   13.3620   66.0580   31.6660 C   0  0  2  0  0  0  0  0  0  0  0  0
   13.0470   64.7720   32.3400 C   0  0  0  0  0  0  0  0  0  0  0  0
   14.1450   64.2610   32.8960 C   0  0  2  0  0  0  0  0  0  0  0  0
   14.2240   63.1130   33.6180 O   0  0  0  0  0  0  0  0  0  0  0  0
   13.2330   62.8760   34.6440 C   0  0  0  0  0  0  0  0  0  0  0  0
   15.9680   64.6760   31.4300 O   0  0  0  0  0  0  0  0  0  0  0  0
   17.3130   64.4150   31.5030 C   0  0  0  0  0  0  0  0  0  0  0  0
   18.1560   65.2240   31.3300 O   0  0  0  0  0  0  0  0  0  0  0  0
   17.7570   62.9860   31.8270 C   0  0  2  0  0  0  0  0  0  0  0  0
   18.9380   62.7300   31.1130 O   0  0  0  0  0  0  0  0  0  0  0  0
   19.0500   63.3590   30.3770 H   0  0  0  0  0  0  0  0  0  0  0  0
   16.6570   61.9950   31.5370 C   0  0  0  0  0  0  0  0  0  0  0  0
   16.8140   60.6320   32.1960 C   0  0  0  0  0  0  0  0  0  0  0  0
   15.9170   60.2190   32.8610 O   0  0  0  0  0  0  0  0  0  0  0  0
   17.9680   59.9180   32.0100 O   0  0  0  0  0  0  0  0  0  0  0  0
   17.9020   58.5060   32.3760 C   0  0  0  0  0  0  0  0  0  0  0  0
   18.0760   62.9770   33.3130 C   0  0  0  0  0  0  0  0  0  0  0  0
   19.5050   62.6780   33.6910 C   0  0  0  0  0  0  0  0  0  0  0  0
   20.3690   63.8950   33.9670 C   0  0  0  0  0  0  0  0  0  0  0  0
   21.6720   63.7430   33.2090 C   0  0  0  0  0  0  0  0  0  0  0  0
   22.0880   65.0240   32.5160 C   0  0  0  0  0  0  0  0  0  0  0  0
   22.7810   63.3160   34.1380 C   0  0  0  0  0  0  0  0  0  0  0  0
   21.5030   62.7200   32.2480 O   0  0  0  0  0  0  0  0  0  0  0  0
   21.5870   61.8840   32.7260 H   0  0  0  0  0  0  0  0  0  0  0  0
  1 24  1  6  0  0  0
  1 21  1  0  0  0  0
  2 19  1  6  0  0  0
  2  1  1  0  0  0  0
  3  2  1  0  0  0  0
  3  4  1  0  0  0  0
  5  4  1  0  0  0  0
  5  6  1  0  0  0  0
  7  6  1  0  0  0  0
  8  9  1  0  0  0  0
  8  7  1  0  0  0  0
  9  5  2  0  0  0  0
 10 11  1  0  0  0  0
 10  9  1  0  0  0  0
 11  3  2  0  0  0  0
 12 11  1  0  0  0  0
 13 12  1  0  0  0  0
 13 14  1  0  0  0  0
 14 19  1  1  0  0  0
 15 14  1  0  0  0  0
 16 14  1  0  0  0  0
 16 17  1  0  0  0  0
 17 18  1  0  0  0  0
 19 18  1  1  0  0  0
 19 20  1  0  0  0  0
 20 21  1  0  0  0  0
 21 22  1  1  0  0  0
 22 23  1  0  0  0  0
 24 25  1  0  0  0  0
 25 27  1  0  0  0  0
 26 25  2  0  0  0  0
 27 30  1  6  0  0  0
 27 35  1  0  0  0  0
 28 27  1  0  0  0  0
 29 28  1  0  0  0  0
 30 31  1  0  0  0  0
 31 32  2  0  0  0  0
 33 31  1  0  0  0  0
 33 34  1  0  0  0  0
 35 36  1  0  0  0  0
 36 37  1  0  0  0  0
 38 37  1  0  0  0  0
 38 40  1  0  0  0  0
 39 38  1  0  0  0  0
 41 42  1  0  0  0  0
 41 38  1  0  0  0  0
M  END
>  <minimizedAffinity>
-6.49817324

$$$$

 OpenBabel12271915143D

 42 46  0  0  1  0  0  0  0  0999 V2000
   16.4630   64.9340   31.0380 C   0  0  1  0  0  0  0  0  0  0  0  0
   16.8410   66.2430   30.3590 C   0  0  1  0  0  0  0  0  0  0  0  0
   15.7230   67.1560   30.0850 C   0  0  0  0  0  0  0  0  0  0  0  0
   14.7470   66.5970   29.2610 C   0  0  0  0  0  0  0  0  0  0  0  0
   13.6160   67.3410   28.9000 C   0  0  0  0  0  0  0  0  0  0  0  0
   12.5430   66.9880   28.1070 O   0  0  0  0  0  0  0  0  0  0  0  0
   11.7370   68.1640   27.9150 C   0  0  0  0  0  0  0  0  0  0  0  0
   12.2550   69.1260   28.8460 O   0  0  0  0  0  0  0  0  0  0  0  0
   13.4390   68.5890   29.3290 C   0  0  0  0  0  0  0  0  0  0  0  0
   14.3960   69.1670   30.1510 C   0  0  0  0  0  0  0  0  0  0  0  0
   15.5420   68.4430   30.5210 C   0  0  0  0  0  0  0  0  0  0  0  0
   16.4180   69.2370   31.4080 C   0  0  0  0  0  0  0  0  0  0  0  0
   16.7560   68.3940   32.5870 C   0  0  0  0  0  0  0  0  0  0  0  0
   17.8200   67.4220   32.3950 N   0  0  2  0  0  0  0  0  0  0  0  0
   17.7460   66.7320   33.1370 H   0  0  0  0  0  0  0  0  0  0  0  0
   19.1060   68.1240   32.5820 C   0  0  0  0  0  0  0  0  0  0  0  0
   19.7280   68.3090   31.2180 C   0  0  0  0  0  0  0  0  0  0  0  0
   18.8970   67.5310   30.2380 C   0  0  0  0  0  0  0  0  0  0  0  0
   17.9940   66.7390   31.1270 C   0  0  2  0  0  0  0  0  0  0  0  0
   18.6960   65.4680   31.4420 C   0  0  0  0  0  0  0  0  0  0  0  0
   17.8460   64.4440   31.3860 C   0  0  2  0  0  0  0  0  0  0  0  0
   18.1460   63.1340   31.5860 O   0  0  0  0  0  0  0  0  0  0  0  0
   18.2530   62.6520   32.9450 C   0  0  0  0  0  0  0  0  0  0  0  0
   15.7700   65.1680   32.2860 O   0  0  0  0  0  0  0  0  0  0  0  0
   14.7180   64.3370   32.5780 C   0  0  0  0  0  0  0  0  0  0  0  0
   14.7600   63.1590   32.4950 O   0  0  0  0  0  0  0  0  0  0  0  0
   13.4010   64.9700   33.0360 C   0  0  2  0  0  0  0  0  0  0  0  0
   12.3540   64.3220   32.3620 O   0  0  0  0  0  0  0  0  0  0  0  0
   12.6790   63.8520   31.5720 H   0  0  0  0  0  0  0  0  0  0  0  0
   13.4120   66.4630   32.8270 C   0  0  0  0  0  0  0  0  0  0  0  0
   12.0440   67.1160   32.6970 C   0  0  0  0  0  0  0  0  0  0  0  0
   11.4640   67.0140   31.6620 O   0  0  0  0  0  0  0  0  0  0  0  0
   11.5140   67.7960   33.7620 O   0  0  0  0  0  0  0  0  0  0  0  0
   10.4250   67.1220   34.4620 C   0  0  0  0  0  0  0  0  0  0  0  0
   13.2870   64.6610   34.5200 C   0  0  0  0  0  0  0  0  0  0  0  0
   12.1910   63.7080   34.9250 C   0  0  0  0  0  0  0  0  0  0  0  0
   12.6460   62.2900   35.2250 C   0  0  0  0  0  0  0  0  0  0  0  0
   11.9380   61.3460   34.2740 C   0  0  0  0  0  0  0  0  0  0  0  0
   11.9830   59.9090   34.7500 C   0  0  0  0  0  0  0  0  0  0  0  0
   10.4950   61.7500   34.1000 C   0  0  0  0  0  0  0  0  0  0  0  0
   12.5640   61.4450   33.0110 O   0  0  0  0  0  0  0  0  0  0  0  0
   12.2190   62.2500   32.6010 H   0  0  0  0  0  0  0  0  0  0  0  0
  1 21  1  0  0  0  0
  1 24  1  1  0  0  0
  2  1  1  0  0  0  0
  2 19  1  1  0  0  0
  3  2  1  0  0  0  0
  3 11  2  0  0  0  0
  4  3  1  0  0  0  0
  5  4  1  0  0  0  0
  5  9  2  0  0  0  0
  6  5  1  0  0  0  0
  7  6  1  0  0  0  0
  7  8  1  0  0  0  0
  8  9  1  0  0  0  0
  9 10  1  0  0  0  0
 10 11  1  0  0  0  0
 11 12  1  0  0  0  0
 12 13  1  0  0  0  0
 14 19  1  6  0  0  0
 14 16  1  0  0  0  0
 14 13  1  0  0  0  0
 14 15  1  0  0  0  0
 17 16  1  0  0  0  0
 18 17  1  0  0  0  0
 19 18  1  6  0  0  0
 19 20  1  0  0  0  0
 21 20  1  0  0  0  0
 21 22  1  6  0  0  0
 22 23  1  0  0  0  0
 24 25  1  0  0  0  0
 25 27  1  0  0  0  0
 26 25  2  0  0  0  0
 27 30  1  6  0  0  0
 27 35  1  0  0  0  0
 28 27  1  0  0  0  0
 29 28  1  0  0  0  0
 31 30  1  0  0  0  0
 31 33  1  0  0  0  0
 32 31  2  0  0  0  0
 33 34  1  0  0  0  0
 35 36  1  0  0  0  0
 36 37  1  0  0  0  0
 38 39  1  0  0  0  0
 38 37  1  0  0  0  0
 40 38  1  0  0  0  0
 41 38  1  0  0  0  0
 42 41  1  0  0  0  0
M  END
>  <minimizedAffinity>
-6.44651794

$$$$

 OpenBabel12271915143D

 42 46  0  0  1  0  0  0  0  0999 V2000
   14.6670   69.8560   30.8720 C   0  0  1  0  0  0  0  0  0  0  0  0
   13.3510   69.3660   30.2880 C   0  0  1  0  0  0  0  0  0  0  0  0
   13.2530   69.4180   28.8230 C   0  0  0  0  0  0  0  0  0  0  0  0
   13.4120   70.7050   28.3080 C   0  0  0  0  0  0  0  0  0  0  0  0
   13.3420   70.9270   26.9260 C   0  0  0  0  0  0  0  0  0  0  0  0
   13.4710   72.1020   26.2130 O   0  0  0  0  0  0  0  0  0  0  0  0
   13.1490   71.8160   24.8410 C   0  0  0  0  0  0  0  0  0  0  0  0
   13.0940   70.3840   24.7620 O   0  0  0  0  0  0  0  0  0  0  0  0
   13.1250   69.9290   26.0730 C   0  0  0  0  0  0  0  0  0  0  0  0
   12.9640   68.6400   26.5600 C   0  0  0  0  0  0  0  0  0  0  0  0
   13.0240   68.3930   27.9420 C   0  0  0  0  0  0  0  0  0  0  0  0
   12.8430   66.9570   28.2410 C   0  0  0  0  0  0  0  0  0  0  0  0
   13.9410   66.5420   29.1570 C   0  0  0  0  0  0  0  0  0  0  0  0
   13.7570   66.8650   30.5630 N   0  0  2  0  0  0  0  0  0  0  0  0
   14.6680   66.8130   31.0120 H   0  0  0  0  0  0  0  0  0  0  0  0
   12.9180   65.8070   31.1590 C   0  0  0  0  0  0  0  0  0  0  0  0
   11.5400   66.3860   31.3760 C   0  0  0  0  0  0  0  0  0  0  0  0
   11.6230   67.8590   31.0910 C   0  0  0  0  0  0  0  0  0  0  0  0
   13.0950   68.0890   30.9720 C   0  0  2  0  0  0  0  0  0  0  0  0
   13.6010   68.3890   32.3370 C   0  0  0  0  0  0  0  0  0  0  0  0
   14.4810   69.3890   32.2940 C   0  0  2  0  0  0  0  0  0  0  0  0
   15.1200   69.9470   33.3540 O   0  0  0  0  0  0  0  0  0  0  0  0
   15.3130   69.1450   34.5420 C   0  0  0  0  0  0  0  0  0  0  0  0
   15.7920   69.1250   30.3300 O   0  0  0  0  0  0  0  0  0  0  0  0
   16.9910   69.7880   30.2630 C   0  0  0  0  0  0  0  0  0  0  0  0
   17.1410   70.8340   29.7340 O   0  0  0  0  0  0  0  0  0  0  0  0
   18.2160   69.1360   30.9080 C   0  0  2  0  0  0  0  0  0  0  0  0
   19.0290   68.6340   29.8800 O   0  0  0  0  0  0  0  0  0  0  0  0
   18.5310   68.5400   29.0480 H   0  0  0  0  0  0  0  0  0  0  0  0
   17.8090   68.0860   31.9120 C   0  0  0  0  0  0  0  0  0  0  0  0
   17.8480   66.6500   31.4110 C   0  0  0  0  0  0  0  0  0  0  0  0
   18.9080   66.1520   31.2000 O   0  0  0  0  0  0  0  0  0  0  0  0
   16.6750   65.9690   31.2170 O   0  0  0  0  0  0  0  0  0  0  0  0
   16.8160   64.5690   30.8270 C   0  0  0  0  0  0  0  0  0  0  0  0
   18.9610   70.2580   31.6130 C   0  0  0  0  0  0  0  0  0  0  0  0
   18.3510   70.7660   32.8950 C   0  0  0  0  0  0  0  0  0  0  0  0
   18.7340   72.1850   33.2750 C   0  0  0  0  0  0  0  0  0  0  0  0
   17.6580   73.1260   32.7710 C   0  0  0  0  0  0  0  0  0  0  0  0
   17.2960   74.1850   33.7910 C   0  0  0  0  0  0  0  0  0  0  0  0
   18.1010   73.8110   31.5030 C   0  0  0  0  0  0  0  0  0  0  0  0
   16.5120   72.3570   32.4630 O   0  0  0  0  0  0  0  0  0  0  0  0
   16.6820   71.9550   31.6010 H   0  0  0  0  0  0  0  0  0  0  0  0
  1 24  1  6  0  0  0
  1 21  1  0  0  0  0
  2  1  1  0  0  0  0
  2 19  1  6  0  0  0
  3  2  1  0  0  0  0
  4  3  1  0  0  0  0
  5  4  1  0  0  0  0
  6  5  1  0  0  0  0
  7  6  1  0  0  0  0
  8  7  1  0  0  0  0
  8  9  1  0  0  0  0
  9 10  1  0  0  0  0
  9  5  2  0  0  0  0
 10 11  1  0  0  0  0
 11 12  1  0  0  0  0
 11  3  2  0  0  0  0
 12 13  1  0  0  0  0
 13 14  1  0  0  0  0
 14 19  1  1  0  0  0
 14 15  1  0  0  0  0
 14 16  1  0  0  0  0
 16 17  1  0  0  0  0
 18 17  1  0  0  0  0
 19 18  1  1  0  0  0
 19 20  1  0  0  0  0
 21 20  1  0  0  0  0
 21 22  1  1  0  0  0
 22 23  1  0  0  0  0
 25 24  1  0  0  0  0
 25 27  1  0  0  0  0
 26 25  2  0  0  0  0
 27 35  1  1  0  0  0
 27 30  1  0  0  0  0
 28 27  1  0  0  0  0
 29 28  1  0  0  0  0
 31 30  1  0  0  0  0
 32 31  2  0  0  0  0
 33 31  1  0  0  0  0
 34 33  1  0  0  0  0
 35 36  1  0  0  0  0
 36 37  1  0  0  0  0
 38 37  1  0  0  0  0
 38 39  1  0  0  0  0
 40 38  1  0  0  0  0
 41 38  1  0  0  0  0
 42 41  1  0  0  0  0
M  END
>  <minimizedAffinity>
-6.43690109

$$$$
