
 OpenBabel12271915143D

 32 35  0  0  1  0  0  0  0  0999 V2000
   16.5200   65.3120   31.1230 C   0  0  1  0  0  0  0  0  0  0  0  0
   15.1530   65.5550   30.5890 N   0  0  0  0  0  0  0  0  0  0  0  0
   15.1680   65.7470   29.5750 H   0  0  0  0  0  0  0  0  0  0  0  0
   14.6850   66.3400   31.0640 H   0  0  0  0  0  0  0  0  0  0  0  0
   14.5520   64.7350   30.7320 H   0  0  0  0  0  0  0  0  0  0  0  0
   17.0350   63.9150   30.7520 C   0  0  0  0  0  0  0  0  0  0  0  0
   17.5920   63.1240   31.8850 C   0  0  0  0  0  0  0  0  0  0  0  0
   18.8900   62.5770   32.0020 C   0  0  0  0  0  0  0  0  0  0  0  0
   20.0290   62.5480   31.1860 C   0  0  0  0  0  0  0  0  0  0  0  0
   21.1840   61.8800   31.6190 C   0  0  0  0  0  0  0  0  0  0  0  0
   21.2100   61.2340   32.8370 C   0  0  0  0  0  0  0  0  0  0  0  0
   20.0860   61.2400   33.6610 C   0  0  0  0  0  0  0  0  0  0  0  0
   18.9490   61.9220   33.2180 C   0  0  0  0  0  0  0  0  0  0  0  0
   17.7270   62.0470   33.8400 N   0  0  0  0  0  0  0  0  0  0  0  0
   17.4660   61.6480   34.7220 H   0  0  0  0  0  0  0  0  0  0  0  0
   16.9090   62.7840   33.0270 C   0  0  0  0  0  0  0  0  0  0  0  0
   17.4760   66.4340   30.7030 C   0  0  0  0  0  0  0  0  0  0  0  0
   18.1170   66.9400   31.8780 O   0  0  0  0  0  0  0  0  0  0  0  0
   19.4710   66.9800   31.9310 C   0  0  0  0  0  0  0  0  0  0  0  0
   20.2770   65.9130   32.3020 C   0  0  0  0  0  0  0  0  0  0  0  0
   21.6660   66.0580   32.2820 C   0  0  0  0  0  0  0  0  0  0  0  0
   22.1820   67.2860   31.8990 C   0  0  0  0  0  0  0  0  0  0  0  0
   21.4210   68.3460   31.5560 N   0  0  0  0  0  0  0  0  0  0  0  0
   20.0850   68.1720   31.5750 C   0  0  0  0  0  0  0  0  0  0  0  0
   22.5820   64.9720   32.6340 C   0  0  0  0  0  0  0  0  0  0  0  0
   23.8280   64.8160   32.1570 C   0  0  0  0  0  0  0  0  0  0  0  0
   24.7540   63.7310   32.5000 C   0  0  0  0  0  0  0  0  0  0  0  0
   24.4220   62.8930   33.5700 C   0  0  0  0  0  0  0  0  0  0  0  0
   25.2800   61.8710   33.9050 C   0  0  0  0  0  0  0  0  0  0  0  0
   26.4250   61.6460   33.2430 N   0  0  0  0  0  0  0  0  0  0  0  0
   26.7360   62.4570   32.2140 C   0  0  0  0  0  0  0  0  0  0  0  0
   25.9400   63.4980   31.8140 C   0  0  0  0  0  0  0  0  0  0  0  0
  1 17  1  6  0  0  0
  2  5  1  0  0  0  0
  2  4  1  0  0  0  0
  2  1  1  0  0  0  0
  3  2  1  0  0  0  0
  6  1  1  0  0  0  0
  6  7  1  0  0  0  0
  7  8  1  0  0  0  0
  7 16  2  0  0  0  0
  8 13  2  0  0  0  0
  9 10  2  0  0  0  0
  9  8  1  0  0  0  0
 10 11  1  0  0  0  0
 11 12  2  0  0  0  0
 13 12  1  0  0  0  0
 13 14  1  0  0  0  0
 14 15  1  0  0  0  0
 16 14  1  0  0  0  0
 17 18  1  0  0  0  0
 18 19  1  0  0  0  0
 19 20  2  0  0  0  0
 21 20  1  0  0  0  0
 21 25  1  0  0  0  0
 22 21  2  0  0  0  0
 23 24  2  0  0  0  0
 23 22  1  0  0  0  0
 24 19  1  0  0  0  0
 26 27  1  0  0  0  0
 26 25  2  0  0  0  0
 27 28  2  0  0  0  0
 28 29  1  0  0  0  0
 30 29  2  0  0  0  0
 31 30  1  0  0  0  0
 32 31  2  0  0  0  0
 32 27  1  0  0  0  0
M  END
>  <minimizedAffinity>
-8.44391823

$$$$

 OpenBabel12271915143D

 32 35  0  0  1  0  0  0  0  0999 V2000
   23.4310   61.5720   35.1220 C   0  0  1  0  0  0  0  0  0  0  0  0
   23.5710   60.2020   35.6850 N   0  0  0  0  0  0  0  0  0  0  0  0
   23.9960   59.5530   35.0060 H   0  0  0  0  0  0  0  0  0  0  0  0
   22.6660   59.8140   35.9890 H   0  0  0  0  0  0  0  0  0  0  0  0
   24.1740   60.2070   36.5170 H   0  0  0  0  0  0  0  0  0  0  0  0
   24.7760   62.3110   35.0860 C   0  0  0  0  0  0  0  0  0  0  0  0
   25.0700   63.0270   33.8130 C   0  0  0  0  0  0  0  0  0  0  0  0
   24.4130   64.1630   33.2890 C   0  0  0  0  0  0  0  0  0  0  0  0
   23.3370   64.9620   33.7000 C   0  0  0  0  0  0  0  0  0  0  0  0
   22.9220   66.0410   32.9040 C   0  0  0  0  0  0  0  0  0  0  0  0
   23.5490   66.3180   31.7090 C   0  0  0  0  0  0  0  0  0  0  0  0
   24.6140   65.5310   31.2740 C   0  0  0  0  0  0  0  0  0  0  0  0
   25.0230   64.4690   32.0860 C   0  0  0  0  0  0  0  0  0  0  0  0
   26.0240   63.5520   31.8600 N   0  0  0  0  0  0  0  0  0  0  0  0
   26.6170   63.5060   31.0520 H   0  0  0  0  0  0  0  0  0  0  0  0
   26.0520   62.6830   32.9170 C   0  0  0  0  0  0  0  0  0  0  0  0
   22.7330   61.5310   33.7590 C   0  0  0  0  0  0  0  0  0  0  0  0
   21.4980   60.8250   33.9090 O   0  0  0  0  0  0  0  0  0  0  0  0
   20.3950   61.2670   33.2570 C   0  0  0  0  0  0  0  0  0  0  0  0
   20.1380   62.5980   32.9570 C   0  0  0  0  0  0  0  0  0  0  0  0
   18.9850   62.9340   32.2440 C   0  0  0  0  0  0  0  0  0  0  0  0
   18.1310   61.9070   31.8750 C   0  0  0  0  0  0  0  0  0  0  0  0
   18.3450   60.6090   32.1730 N   0  0  0  0  0  0  0  0  0  0  0  0
   19.4720   60.3150   32.8530 C   0  0  0  0  0  0  0  0  0  0  0  0
   18.6580   64.3110   31.8680 C   0  0  0  0  0  0  0  0  0  0  0  0
   19.4640   65.3750   32.0240 C   0  0  0  0  0  0  0  0  0  0  0  0
   19.1460   66.7590   31.6540 C   0  0  0  0  0  0  0  0  0  0  0  0
   18.2450   66.9710   30.6050 C   0  0  0  0  0  0  0  0  0  0  0  0
   17.9370   68.2630   30.2450 C   0  0  0  0  0  0  0  0  0  0  0  0
   18.4680   69.3290   30.8630 N   0  0  0  0  0  0  0  0  0  0  0  0
   19.3340   69.1140   31.8720 C   0  0  0  0  0  0  0  0  0  0  0  0
   19.6960   67.8620   32.2950 C   0  0  0  0  0  0  0  0  0  0  0  0
  1 17  1  6  0  0  0
  1  2  1  0  0  0  0
  2  4  1  0  0  0  0
  2  5  1  0  0  0  0
  3  2  1  0  0  0  0
  6  1  1  0  0  0  0
  7  6  1  0  0  0  0
  8  9  1  0  0  0  0
  8  7  1  0  0  0  0
 10  9  2  0  0  0  0
 11 10  1  0  0  0  0
 12 11  2  0  0  0  0
 12 13  1  0  0  0  0
 13  8  2  0  0  0  0
 14 13  1  0  0  0  0
 14 16  1  0  0  0  0
 15 14  1  0  0  0  0
 16  7  2  0  0  0  0
 17 18  1  0  0  0  0
 19 18  1  0  0  0  0
 20 19  1  0  0  0  0
 21 20  2  0  0  0  0
 22 23  2  0  0  0  0
 22 21  1  0  0  0  0
 23 24  1  0  0  0  0
 24 19  2  0  0  0  0
 25 26  2  0  0  0  0
 25 21  1  0  0  0  0
 27 26  1  0  0  0  0
 27 32  2  0  0  0  0
 28 27  1  0  0  0  0
 29 28  2  0  0  0  0
 29 30  1  0  0  0  0
 30 31  2  0  0  0  0
 31 32  1  0  0  0  0
M  END
>  <minimizedAffinity>
-8.14337635

$$$$

 OpenBabel12271915143D

 32 35  0  0  1  0  0  0  0  0999 V2000
   20.3090   61.7700   33.2520 C   0  0  1  0  0  0  0  0  0  0  0  0
   20.7770   60.3730   33.0430 N   0  0  0  0  0  0  0  0  0  0  0  0
   21.6250   60.3390   32.4570 H   0  0  0  0  0  0  0  0  0  0  0  0
   20.0530   59.7830   32.6080 H   0  0  0  0  0  0  0  0  0  0  0  0
   21.0110   59.9260   33.9380 H   0  0  0  0  0  0  0  0  0  0  0  0
   21.1810   62.5140   34.2730 C   0  0  0  0  0  0  0  0  0  0  0  0
   22.6360   62.2050   34.2060 C   0  0  0  0  0  0  0  0  0  0  0  0
   23.6240   62.8570   33.4330 C   0  0  0  0  0  0  0  0  0  0  0  0
   23.6230   63.9170   32.5150 C   0  0  0  0  0  0  0  0  0  0  0  0
   24.8200   64.3110   31.9000 C   0  0  0  0  0  0  0  0  0  0  0  0
   26.0020   63.6570   32.1730 C   0  0  0  0  0  0  0  0  0  0  0  0
   26.0260   62.5930   33.0730 C   0  0  0  0  0  0  0  0  0  0  0  0
   24.8260   62.2230   33.6870 C   0  0  0  0  0  0  0  0  0  0  0  0
   24.6000   61.2030   34.5830 N   0  0  0  0  0  0  0  0  0  0  0  0
   25.2810   60.5540   34.9290 H   0  0  0  0  0  0  0  0  0  0  0  0
   23.2680   61.2020   34.8990 C   0  0  0  0  0  0  0  0  0  0  0  0
   20.1870   62.5080   31.9150 C   0  0  0  0  0  0  0  0  0  0  0  0
   20.3090   63.9110   32.1670 O   0  0  0  0  0  0  0  0  0  0  0  0
   19.2850   64.7380   31.8360 C   0  0  0  0  0  0  0  0  0  0  0  0
   19.3160   66.1190   31.9620 C   0  0  0  0  0  0  0  0  0  0  0  0
   18.2150   66.8730   31.5510 C   0  0  0  0  0  0  0  0  0  0  0  0
   17.1200   66.1940   31.0420 C   0  0  0  0  0  0  0  0  0  0  0  0
   17.0550   64.8520   30.9300 N   0  0  0  0  0  0  0  0  0  0  0  0
   18.1370   64.1520   31.3250 C   0  0  0  0  0  0  0  0  0  0  0  0
   18.1820   68.3350   31.6280 C   0  0  0  0  0  0  0  0  0  0  0  0
   18.4240   69.0650   32.7300 C   0  0  0  0  0  0  0  0  0  0  0  0
   18.3910   70.5290   32.8200 C   0  0  0  0  0  0  0  0  0  0  0  0
   17.6140   71.1110   33.8270 C   0  0  0  0  0  0  0  0  0  0  0  0
   17.5710   72.4830   33.9250 C   0  0  0  0  0  0  0  0  0  0  0  0
   18.2480   73.2850   33.0890 N   0  0  0  0  0  0  0  0  0  0  0  0
   18.9930   72.7160   32.1220 C   0  0  0  0  0  0  0  0  0  0  0  0
   19.0920   71.3600   31.9540 C   0  0  0  0  0  0  0  0  0  0  0  0
  1 17  1  6  0  0  0
  1  6  1  0  0  0  0
  2  1  1  0  0  0  0
  2  5  1  0  0  0  0
  3  2  1  0  0  0  0
  4  2  1  0  0  0  0
  7  6  1  0  0  0  0
  7 16  2  0  0  0  0
  8 13  1  0  0  0  0
  8  7  1  0  0  0  0
  9  8  2  0  0  0  0
 10 11  2  0  0  0  0
 10  9  1  0  0  0  0
 11 12  1  0  0  0  0
 12 13  2  0  0  0  0
 13 14  1  0  0  0  0
 14 16  1  0  0  0  0
 14 15  1  0  0  0  0
 17 18  1  0  0  0  0
 19 20  1  0  0  0  0
 19 18  1  0  0  0  0
 21 25  1  0  0  0  0
 21 20  2  0  0  0  0
 22 21  1  0  0  0  0
 23 22  2  0  0  0  0
 23 24  1  0  0  0  0
 24 19  2  0  0  0  0
 25 26  2  0  0  0  0
 26 27  1  0  0  0  0
 27 28  2  0  0  0  0
 28 29  1  0  0  0  0
 30 29  2  0  0  0  0
 31 30  1  0  0  0  0
 32 31  2  0  0  0  0
 32 27  1  0  0  0  0
M  END
>  <minimizedAffinity>
-8.01839733

$$$$

 OpenBabel12271915143D

 32 35  0  0  1  0  0  0  0  0999 V2000
   21.6530   61.4790   34.0870 C   0  0  1  0  0  0  0  0  0  0  0  0
   20.7480   62.4430   34.7680 N   0  0  0  0  0  0  0  0  0  0  0  0
   20.8970   63.4070   34.4340 H   0  0  0  0  0  0  0  0  0  0  0  0
   20.8640   62.4280   35.7910 H   0  0  0  0  0  0  0  0  0  0  0  0
   19.7630   62.2120   34.5890 H   0  0  0  0  0  0  0  0  0  0  0  0
   21.1880   61.1760   32.6560 C   0  0  0  0  0  0  0  0  0  0  0  0
   19.7130   61.2080   32.4500 C   0  0  0  0  0  0  0  0  0  0  0  0
   18.9240   62.2980   32.0180 C   0  0  0  0  0  0  0  0  0  0  0  0
   19.1830   63.6310   31.6700 C   0  0  0  0  0  0  0  0  0  0  0  0
   18.1280   64.4730   31.2870 C   0  0  0  0  0  0  0  0  0  0  0  0
   16.8290   64.0090   31.2640 C   0  0  0  0  0  0  0  0  0  0  0  0
   16.5460   62.6910   31.6160 C   0  0  0  0  0  0  0  0  0  0  0  0
   17.6130   61.8640   31.9810 C   0  0  0  0  0  0  0  0  0  0  0  0
   17.5780   60.5480   32.3840 N   0  0  0  0  0  0  0  0  0  0  0  0
   16.7590   59.9780   32.4850 H   0  0  0  0  0  0  0  0  0  0  0  0
   18.8590   60.1540   32.6610 C   0  0  0  0  0  0  0  0  0  0  0  0
   23.1080   61.9560   34.1570 C   0  0  0  0  0  0  0  0  0  0  0  0
   23.4970   62.3960   32.8520 O   0  0  0  0  0  0  0  0  0  0  0  0
   23.7610   63.7100   32.6450 C   0  0  0  0  0  0  0  0  0  0  0  0
   22.8010   64.6690   32.3530 C   0  0  0  0  0  0  0  0  0  0  0  0
   23.1850   66.0030   32.1980 C   0  0  0  0  0  0  0  0  0  0  0  0
   24.5300   66.3090   32.3340 C   0  0  0  0  0  0  0  0  0  0  0  0
   25.4850   65.3930   32.5950 N   0  0  0  0  0  0  0  0  0  0  0  0
   25.0830   64.1160   32.7490 C   0  0  0  0  0  0  0  0  0  0  0  0
   22.2290   67.0750   31.9150 C   0  0  0  0  0  0  0  0  0  0  0  0
   20.8950   66.9340   31.8470 C   0  0  0  0  0  0  0  0  0  0  0  0
   19.9280   68.0000   31.5610 C   0  0  0  0  0  0  0  0  0  0  0  0
   19.2160   67.9390   30.3590 C   0  0  0  0  0  0  0  0  0  0  0  0
   18.3050   68.9310   30.0740 C   0  0  0  0  0  0  0  0  0  0  0  0
   18.0740   69.9560   30.9080 N   0  0  0  0  0  0  0  0  0  0  0  0
   18.7640   70.0060   32.0640 C   0  0  0  0  0  0  0  0  0  0  0  0
   19.6880   69.0610   32.4250 C   0  0  0  0  0  0  0  0  0  0  0  0
  1  6  1  6  0  0  0
  1 17  1  0  0  0  0
  1  2  1  0  0  0  0
  2  4  1  0  0  0  0
  3  2  1  0  0  0  0
  5  2  1  0  0  0  0
  7  6  1  0  0  0  0
  7 16  2  0  0  0  0
  8  7  1  0  0  0  0
  9  8  2  0  0  0  0
 10  9  1  0  0  0  0
 11 10  2  0  0  0  0
 11 12  1  0  0  0  0
 12 13  2  0  0  0  0
 13  8  1  0  0  0  0
 13 14  1  0  0  0  0
 14 15  1  0  0  0  0
 14 16  1  0  0  0  0
 18 17  1  0  0  0  0
 19 24  1  0  0  0  0
 19 18  1  0  0  0  0
 20 19  2  0  0  0  0
 21 22  2  0  0  0  0
 21 20  1  0  0  0  0
 22 23  1  0  0  0  0
 23 24  2  0  0  0  0
 25 21  1  0  0  0  0
 26 25  2  0  0  0  0
 27 26  1  0  0  0  0
 27 32  2  0  0  0  0
 28 27  1  0  0  0  0
 29 28  2  0  0  0  0
 29 30  1  0  0  0  0
 30 31  2  0  0  0  0
 31 32  1  0  0  0  0
M  END
>  <minimizedAffinity>
-7.92926121

$$$$

 OpenBabel12271915143D

 32 35  0  0  1  0  0  0  0  0999 V2000
   20.5000   64.3110   32.6930 C   0  0  1  0  0  0  0  0  0  0  0  0
   19.2770   65.1470   32.8280 N   0  0  0  0  0  0  0  0  0  0  0  0
   18.4430   64.5740   33.0270 H   0  0  0  0  0  0  0  0  0  0  0  0
   19.0950   65.7070   31.9830 H   0  0  0  0  0  0  0  0  0  0  0  0
   19.3730   65.8170   33.6000 H   0  0  0  0  0  0  0  0  0  0  0  0
   21.0150   63.8340   34.0580 C   0  0  0  0  0  0  0  0  0  0  0  0
   22.2850   63.0570   34.0180 C   0  0  0  0  0  0  0  0  0  0  0  0
   23.5110   63.4350   33.4260 C   0  0  0  0  0  0  0  0  0  0  0  0
   23.9610   64.5530   32.7090 C   0  0  0  0  0  0  0  0  0  0  0  0
   25.2830   64.5970   32.2390 C   0  0  0  0  0  0  0  0  0  0  0  0
   26.1450   63.5450   32.4580 C   0  0  0  0  0  0  0  0  0  0  0  0
   25.7170   62.4180   33.1590 C   0  0  0  0  0  0  0  0  0  0  0  0
   24.4020   62.3980   33.6320 C   0  0  0  0  0  0  0  0  0  0  0  0
   23.7540   61.3990   34.3230 N   0  0  0  0  0  0  0  0  0  0  0  0
   24.1410   60.5120   34.5870 H   0  0  0  0  0  0  0  0  0  0  0  0
   22.4700   61.8090   34.5600 C   0  0  0  0  0  0  0  0  0  0  0  0
   20.2680   63.1630   31.7040 C   0  0  0  0  0  0  0  0  0  0  0  0
   18.9130   62.7240   31.8380 O   0  0  0  0  0  0  0  0  0  0  0  0
   18.6620   61.4390   32.1920 C   0  0  0  0  0  0  0  0  0  0  0  0
   17.3950   60.8780   32.2750 C   0  0  0  0  0  0  0  0  0  0  0  0
   17.2590   59.5300   32.6110 C   0  0  0  0  0  0  0  0  0  0  0  0
   18.4140   58.8070   32.8630 C   0  0  0  0  0  0  0  0  0  0  0  0
   19.6560   59.3330   32.8110 N   0  0  0  0  0  0  0  0  0  0  0  0
   19.7550   60.6340   32.4740 C   0  0  0  0  0  0  0  0  0  0  0  0
   15.9600   58.8600   32.6940 C   0  0  0  0  0  0  0  0  0  0  0  0
   15.7630   57.5310   32.6560 C   0  0  0  0  0  0  0  0  0  0  0  0
   14.4660   56.8490   32.7350 C   0  0  0  0  0  0  0  0  0  0  0  0
   14.4110   55.6080   33.3790 C   0  0  0  0  0  0  0  0  0  0  0  0
   13.2030   54.9540   33.4610 C   0  0  0  0  0  0  0  0  0  0  0  0
   12.0740   55.4620   32.9450 N   0  0  0  0  0  0  0  0  0  0  0  0
   12.1360   56.6570   32.3270 C   0  0  0  0  0  0  0  0  0  0  0  0
   13.2960   57.3760   32.2010 C   0  0  0  0  0  0  0  0  0  0  0  0
  1 17  1  6  0  0  0
  1  2  1  0  0  0  0
  1  6  1  0  0  0  0
  2  3  1  0  0  0  0
  2  5  1  0  0  0  0
  4  2  1  0  0  0  0
  7  6  1  0  0  0  0
  7 16  2  0  0  0  0
  8 13  1  0  0  0  0
  8  7  1  0  0  0  0
  9  8  2  0  0  0  0
 10 11  2  0  0  0  0
 10  9  1  0  0  0  0
 11 12  1  0  0  0  0
 12 13  2  0  0  0  0
 13 14  1  0  0  0  0
 14 16  1  0  0  0  0
 14 15  1  0  0  0  0
 17 18  1  0  0  0  0
 18 19  1  0  0  0  0
 19 20  2  0  0  0  0
 19 24  1  0  0  0  0
 20 21  1  0  0  0  0
 21 25  1  0  0  0  0
 21 22  2  0  0  0  0
 23 22  1  0  0  0  0
 24 23  2  0  0  0  0
 26 25  2  0  0  0  0
 26 27  1  0  0  0  0
 27 28  2  0  0  0  0
 28 29  1  0  0  0  0
 30 29  2  0  0  0  0
 31 30  1  0  0  0  0
 32 31  2  0  0  0  0
 32 27  1  0  0  0  0
M  END
>  <minimizedAffinity>
-7.86528444

$$$$

 OpenBabel12271915143D

 32 35  0  0  1  0  0  0  0  0999 V2000
   20.2360   61.5360   33.3040 C   0  0  1  0  0  0  0  0  0  0  0  0
   20.9870   61.0410   32.1180 N   0  0  0  0  0  0  0  0  0  0  0  0
   21.0660   61.7650   31.3870 H   0  0  0  0  0  0  0  0  0  0  0  0
   20.5510   60.2040   31.7060 H   0  0  0  0  0  0  0  0  0  0  0  0
   21.9430   60.7680   32.3760 H   0  0  0  0  0  0  0  0  0  0  0  0
   21.0920   62.4750   34.1660 C   0  0  0  0  0  0  0  0  0  0  0  0
   22.5570   62.2080   34.1290 C   0  0  0  0  0  0  0  0  0  0  0  0
   23.5450   62.9100   33.4030 C   0  0  0  0  0  0  0  0  0  0  0  0
   23.5390   63.9970   32.5190 C   0  0  0  0  0  0  0  0  0  0  0  0
   24.7400   64.4430   31.9480 C   0  0  0  0  0  0  0  0  0  0  0  0
   25.9330   63.8130   32.2330 C   0  0  0  0  0  0  0  0  0  0  0  0
   25.9630   62.7230   33.1010 C   0  0  0  0  0  0  0  0  0  0  0  0
   24.7580   62.3020   33.6710 C   0  0  0  0  0  0  0  0  0  0  0  0
   24.5370   61.2490   34.5300 N   0  0  0  0  0  0  0  0  0  0  0  0
   25.2270   60.6080   34.8740 H   0  0  0  0  0  0  0  0  0  0  0  0
   23.1980   61.2010   34.8090 C   0  0  0  0  0  0  0  0  0  0  0  0
   18.9020   62.1600   32.8810 C   0  0  0  0  0  0  0  0  0  0  0  0
   19.1150   62.8970   31.6740 O   0  0  0  0  0  0  0  0  0  0  0  0
   18.4190   64.0420   31.4630 C   0  0  0  0  0  0  0  0  0  0  0  0
   18.8430   65.3040   31.8570 C   0  0  0  0  0  0  0  0  0  0  0  0
   18.0610   66.4200   31.5510 C   0  0  0  0  0  0  0  0  0  0  0  0
   16.8730   66.2090   30.8690 C   0  0  0  0  0  0  0  0  0  0  0  0
   16.4280   64.9920   30.4940 N   0  0  0  0  0  0  0  0  0  0  0  0
   17.2100   63.9360   30.7950 C   0  0  0  0  0  0  0  0  0  0  0  0
   18.4510   67.7840   31.9090 C   0  0  0  0  0  0  0  0  0  0  0  0
   17.6060   68.7870   32.2030 C   0  0  0  0  0  0  0  0  0  0  0  0
   17.9850   70.1590   32.5600 C   0  0  0  0  0  0  0  0  0  0  0  0
   18.7680   70.8840   31.6560 C   0  0  0  0  0  0  0  0  0  0  0  0
   19.1330   72.1710   31.9760 C   0  0  0  0  0  0  0  0  0  0  0  0
   18.7660   72.7590   33.1240 N   0  0  0  0  0  0  0  0  0  0  0  0
   18.0130   72.0530   33.9890 C   0  0  0  0  0  0  0  0  0  0  0  0
   17.6050   70.7670   33.7500 C   0  0  0  0  0  0  0  0  0  0  0  0
  1 17  1  6  0  0  0
  1  6  1  0  0  0  0
  2  5  1  0  0  0  0
  2  1  1  0  0  0  0
  3  2  1  0  0  0  0
  4  2  1  0  0  0  0
  7  6  1  0  0  0  0
  7 16  2  0  0  0  0
  8 13  1  0  0  0  0
  8  7  1  0  0  0  0
  9  8  2  0  0  0  0
 10 11  2  0  0  0  0
 10  9  1  0  0  0  0
 11 12  1  0  0  0  0
 12 13  2  0  0  0  0
 13 14  1  0  0  0  0
 14 16  1  0  0  0  0
 14 15  1  0  0  0  0
 18 17  1  0  0  0  0
 19 18  1  0  0  0  0
 19 20  2  0  0  0  0
 21 20  1  0  0  0  0
 21 25  1  0  0  0  0
 22 21  2  0  0  0  0
 23 24  2  0  0  0  0
 23 22  1  0  0  0  0
 24 19  1  0  0  0  0
 25 26  2  0  0  0  0
 26 27  1  0  0  0  0
 27 32  2  0  0  0  0
 28 29  2  0  0  0  0
 28 27  1  0  0  0  0
 29 30  1  0  0  0  0
 30 31  2  0  0  0  0
 32 31  1  0  0  0  0
M  END
>  <minimizedAffinity>
-7.82654905

$$$$

 OpenBabel12271915143D

 32 35  0  0  1  0  0  0  0  0999 V2000
   19.9450   63.1720   33.7790 C   0  0  1  0  0  0  0  0  0  0  0  0
   18.8830   62.7600   34.7350 N   0  0  0  0  0  0  0  0  0  0  0  0
   19.0090   61.7850   35.0480 H   0  0  0  0  0  0  0  0  0  0  0  0
   17.9400   62.8560   34.3320 H   0  0  0  0  0  0  0  0  0  0  0  0
   18.8960   63.3500   35.5760 H   0  0  0  0  0  0  0  0  0  0  0  0
   21.2740   63.4540   34.4930 C   0  0  0  0  0  0  0  0  0  0  0  0
   22.3930   63.8750   33.6050 C   0  0  0  0  0  0  0  0  0  0  0  0
   23.6690   63.2800   33.4800 C   0  0  0  0  0  0  0  0  0  0  0  0
   24.3190   62.1960   34.0860 C   0  0  0  0  0  0  0  0  0  0  0  0
   25.6370   61.8790   33.7240 C   0  0  0  0  0  0  0  0  0  0  0  0
   26.3130   62.6330   32.7880 C   0  0  0  0  0  0  0  0  0  0  0  0
   25.6910   63.7230   32.1810 C   0  0  0  0  0  0  0  0  0  0  0  0
   24.3730   64.0140   32.5440 C   0  0  0  0  0  0  0  0  0  0  0  0
   23.5690   65.0400   32.1010 N   0  0  0  0  0  0  0  0  0  0  0  0
   23.8220   65.7520   31.4410 H   0  0  0  0  0  0  0  0  0  0  0  0
   22.3640   64.9460   32.7450 C   0  0  0  0  0  0  0  0  0  0  0  0
   20.0790   62.1530   32.6430 C   0  0  0  0  0  0  0  0  0  0  0  0
   19.7960   62.8180   31.4080 O   0  0  0  0  0  0  0  0  0  0  0  0
   18.9330   63.8650   31.4010 C   0  0  0  0  0  0  0  0  0  0  0  0
   19.3080   65.1950   31.5280 C   0  0  0  0  0  0  0  0  0  0  0  0
   18.3340   66.1940   31.4660 C   0  0  0  0  0  0  0  0  0  0  0  0
   17.0160   65.8030   31.2910 C   0  0  0  0  0  0  0  0  0  0  0  0
   16.6220   64.5160   31.1870 N   0  0  0  0  0  0  0  0  0  0  0  0
   17.5860   63.5760   31.2400 C   0  0  0  0  0  0  0  0  0  0  0  0
   18.6530   67.6200   31.5650 C   0  0  0  0  0  0  0  0  0  0  0  0
   17.8550   68.5630   32.0930 C   0  0  0  0  0  0  0  0  0  0  0  0
   18.1620   69.9940   32.1960 C   0  0  0  0  0  0  0  0  0  0  0  0
   17.9560   70.7960   31.0680 C   0  0  0  0  0  0  0  0  0  0  0  0
   18.2390   72.1400   31.1470 C   0  0  0  0  0  0  0  0  0  0  0  0
   18.7070   72.7120   32.2660 N   0  0  0  0  0  0  0  0  0  0  0  0
   18.9030   71.9330   33.3470 C   0  0  0  0  0  0  0  0  0  0  0  0
   18.6460   70.5870   33.3560 C   0  0  0  0  0  0  0  0  0  0  0  0
  1 17  1  6  0  0  0
  1  6  1  0  0  0  0
  1  2  1  0  0  0  0
  2  3  1  0  0  0  0
  2  5  1  0  0  0  0
  4  2  1  0  0  0  0
  7  6  1  0  0  0  0
  8  7  1  0  0  0  0
  8  9  2  0  0  0  0
 10  9  1  0  0  0  0
 11 10  2  0  0  0  0
 12 13  2  0  0  0  0
 12 11  1  0  0  0  0
 13  8  1  0  0  0  0
 14 13  1  0  0  0  0
 14 16  1  0  0  0  0
 15 14  1  0  0  0  0
 16  7  2  0  0  0  0
 18 17  1  0  0  0  0
 19 18  1  0  0  0  0
 19 20  2  0  0  0  0
 21 20  1  0  0  0  0
 21 25  1  0  0  0  0
 22 21  2  0  0  0  0
 23 24  2  0  0  0  0
 23 22  1  0  0  0  0
 24 19  1  0  0  0  0
 25 26  2  0  0  0  0
 26 27  1  0  0  0  0
 27 32  2  0  0  0  0
 28 29  2  0  0  0  0
 28 27  1  0  0  0  0
 29 30  1  0  0  0  0
 30 31  2  0  0  0  0
 31 32  1  0  0  0  0
M  END
>  <minimizedAffinity>
-7.66467953

$$$$

 OpenBabel12271915143D

 32 35  0  0  1  0  0  0  0  0999 V2000
   20.4500   64.5220   32.5680 C   0  0  1  0  0  0  0  0  0  0  0  0
   19.3370   65.5020   32.6840 N   0  0  0  0  0  0  0  0  0  0  0  0
   18.4490   65.0430   32.9380 H   0  0  0  0  0  0  0  0  0  0  0  0
   19.1940   66.0310   31.8110 H   0  0  0  0  0  0  0  0  0  0  0  0
   19.5350   66.1990   33.4110 H   0  0  0  0  0  0  0  0  0  0  0  0
   20.9500   64.0650   33.9460 C   0  0  0  0  0  0  0  0  0  0  0  0
   22.1570   63.1930   33.9230 C   0  0  0  0  0  0  0  0  0  0  0  0
   23.4400   63.5060   33.4190 C   0  0  0  0  0  0  0  0  0  0  0  0
   24.0140   64.6220   32.7960 C   0  0  0  0  0  0  0  0  0  0  0  0
   25.3580   64.5890   32.3970 C   0  0  0  0  0  0  0  0  0  0  0  0
   26.1240   63.4600   32.5960 C   0  0  0  0  0  0  0  0  0  0  0  0
   25.5730   62.3330   33.2030 C   0  0  0  0  0  0  0  0  0  0  0  0
   24.2350   62.3910   33.6060 C   0  0  0  0  0  0  0  0  0  0  0  0
   23.4760   61.4080   34.2010 N   0  0  0  0  0  0  0  0  0  0  0  0
   23.7780   60.4800   34.4290 H   0  0  0  0  0  0  0  0  0  0  0  0
   22.2160   61.9050   34.3960 C   0  0  0  0  0  0  0  0  0  0  0  0
   20.0550   63.3550   31.6570 C   0  0  0  0  0  0  0  0  0  0  0  0
   18.6520   63.1220   31.8110 O   0  0  0  0  0  0  0  0  0  0  0  0
   18.2130   61.8730   32.1070 C   0  0  0  0  0  0  0  0  0  0  0  0
   16.8780   61.5150   32.2250 C   0  0  0  0  0  0  0  0  0  0  0  0
   16.5420   60.1860   32.4950 C   0  0  0  0  0  0  0  0  0  0  0  0
   17.5760   59.2770   32.6490 C   0  0  0  0  0  0  0  0  0  0  0  0
   18.8820   59.6030   32.5620 N   0  0  0  0  0  0  0  0  0  0  0  0
   19.1740   60.8900   32.2900 C   0  0  0  0  0  0  0  0  0  0  0  0
   15.1570   59.7260   32.6080 C   0  0  0  0  0  0  0  0  0  0  0  0
   14.0730   60.5170   32.6600 C   0  0  0  0  0  0  0  0  0  0  0  0
   12.6810   60.0680   32.7770 C   0  0  0  0  0  0  0  0  0  0  0  0
   12.2580   59.0130   31.9600 C   0  0  0  0  0  0  0  0  0  0  0  0
   10.9550   58.5800   32.0560 C   0  0  0  0  0  0  0  0  0  0  0  0
   10.0740   59.1310   32.9040 N   0  0  0  0  0  0  0  0  0  0  0  0
   10.4900   60.1450   33.6860 C   0  0  0  0  0  0  0  0  0  0  0  0
   11.7680   60.6390   33.6560 C   0  0  0  0  0  0  0  0  0  0  0  0
  1 17  1  6  0  0  0
  1  2  1  0  0  0  0
  1  6  1  0  0  0  0
  2  3  1  0  0  0  0
  2  5  1  0  0  0  0
  4  2  1  0  0  0  0
  7  6  1  0  0  0  0
  7 16  2  0  0  0  0
  8 13  1  0  0  0  0
  8  7  1  0  0  0  0
  9  8  2  0  0  0  0
 10 11  2  0  0  0  0
 10  9  1  0  0  0  0
 11 12  1  0  0  0  0
 12 13  2  0  0  0  0
 13 14  1  0  0  0  0
 14 16  1  0  0  0  0
 14 15  1  0  0  0  0
 17 18  1  0  0  0  0
 18 19  1  0  0  0  0
 19 20  2  0  0  0  0
 19 24  1  0  0  0  0
 20 21  1  0  0  0  0
 21 25  1  0  0  0  0
 21 22  2  0  0  0  0
 23 22  1  0  0  0  0
 24 23  2  0  0  0  0
 25 26  2  0  0  0  0
 26 27  1  0  0  0  0
 27 32  2  0  0  0  0
 28 29  2  0  0  0  0
 28 27  1  0  0  0  0
 29 30  1  0  0  0  0
 30 31  2  0  0  0  0
 32 31  1  0  0  0  0
M  END
>  <minimizedAffinity>
-7.63640308

$$$$

 OpenBabel12271915143D

 32 35  0  0  1  0  0  0  0  0999 V2000
   20.1490   64.6120   32.2380 C   0  0  1  0  0  0  0  0  0  0  0  0
   19.2080   65.6940   32.6330 N   0  0  0  0  0  0  0  0  0  0  0  0
   18.4110   65.3270   33.1750 H   0  0  0  0  0  0  0  0  0  0  0  0
   18.8420   66.2060   31.8180 H   0  0  0  0  0  0  0  0  0  0  0  0
   19.6770   66.3920   33.2230 H   0  0  0  0  0  0  0  0  0  0  0  0
   21.0170   64.1540   33.4190 C   0  0  0  0  0  0  0  0  0  0  0  0
   22.4560   63.9410   33.1020 C   0  0  0  0  0  0  0  0  0  0  0  0
   23.3420   63.0090   33.6870 C   0  0  0  0  0  0  0  0  0  0  0  0
   23.2350   62.0400   34.6950 C   0  0  0  0  0  0  0  0  0  0  0  0
   24.3540   61.2710   35.0490 C   0  0  0  0  0  0  0  0  0  0  0  0
   25.5690   61.4670   34.4280 C   0  0  0  0  0  0  0  0  0  0  0  0
   25.7030   62.4320   33.4320 C   0  0  0  0  0  0  0  0  0  0  0  0
   24.5730   63.1780   33.0830 C   0  0  0  0  0  0  0  0  0  0  0  0
   24.4670   64.1890   32.1540 N   0  0  0  0  0  0  0  0  0  0  0  0
   25.2070   64.5530   31.5830 H   0  0  0  0  0  0  0  0  0  0  0  0
   23.1760   64.6440   32.1660 C   0  0  0  0  0  0  0  0  0  0  0  0
   19.4000   63.4580   31.5630 C   0  0  0  0  0  0  0  0  0  0  0  0
   18.5930   62.8090   32.5500 O   0  0  0  0  0  0  0  0  0  0  0  0
   18.6180   61.4570   32.6440 C   0  0  0  0  0  0  0  0  0  0  0  0
   17.5060   60.6380   32.5030 C   0  0  0  0  0  0  0  0  0  0  0  0
   17.6580   59.2510   32.5800 C   0  0  0  0  0  0  0  0  0  0  0  0
   18.9290   58.7520   32.8120 C   0  0  0  0  0  0  0  0  0  0  0  0
   20.0220   59.5260   32.9750 N   0  0  0  0  0  0  0  0  0  0  0  0
   19.8460   60.8600   32.8850 C   0  0  0  0  0  0  0  0  0  0  0  0
   16.5390   58.3210   32.4160 C   0  0  0  0  0  0  0  0  0  0  0  0
   15.2430   58.6160   32.6110 C   0  0  0  0  0  0  0  0  0  0  0  0
   14.1140   57.6920   32.4530 C   0  0  0  0  0  0  0  0  0  0  0  0
   12.8350   58.2350   32.2940 C   0  0  0  0  0  0  0  0  0  0  0  0
   11.7650   57.3820   32.1450 C   0  0  0  0  0  0  0  0  0  0  0  0
   11.9030   56.0480   32.1460 N   0  0  0  0  0  0  0  0  0  0  0  0
   13.1380   55.5340   32.2990 C   0  0  0  0  0  0  0  0  0  0  0  0
   14.2570   56.3100   32.4540 C   0  0  0  0  0  0  0  0  0  0  0  0
  1 17  1  1  0  0  0
  1  2  1  0  0  0  0
  1  6  1  0  0  0  0
  2  3  1  0  0  0  0
  2  5  1  0  0  0  0
  4  2  1  0  0  0  0
  7  6  1  0  0  0  0
  7  8  1  0  0  0  0
  8  9  2  0  0  0  0
  9 10  1  0  0  0  0
 11 10  2  0  0  0  0
 12 11  1  0  0  0  0
 13 12  2  0  0  0  0
 13  8  1  0  0  0  0
 14 16  1  0  0  0  0
 14 13  1  0  0  0  0
 15 14  1  0  0  0  0
 16  7  2  0  0  0  0
 17 18  1  0  0  0  0
 18 19  1  0  0  0  0
 19 24  2  0  0  0  0
 20 21  2  0  0  0  0
 20 19  1  0  0  0  0
 21 22  1  0  0  0  0
 22 23  2  0  0  0  0
 24 23  1  0  0  0  0
 25 21  1  0  0  0  0
 25 26  2  0  0  0  0
 27 32  1  0  0  0  0
 27 26  1  0  0  0  0
 28 27  2  0  0  0  0
 29 30  2  0  0  0  0
 29 28  1  0  0  0  0
 30 31  1  0  0  0  0
 31 32  2  0  0  0  0
M  END
>  <minimizedAffinity>
-7.63549995

$$$$
