
 OpenBabel12271915213D

 27 29  0  0  1  0  0  0  0  0999 V2000
   20.6140   63.4390   32.0700 C   0  0  1  0  0  0  0  0  0  0  0  0
   20.3440   62.2110   31.3590 N   0  0  0  0  0  0  0  0  0  0  0  0
   20.7410   61.3000   31.7330 H   0  0  0  0  0  0  0  0  0  0  0  0
   18.7900   61.9790   31.4350 O   0  0  0  0  0  0  0  0  0  0  0  0
   18.2760   63.1990   31.9830 C   0  0  2  0  0  0  0  0  0  0  0  0
   17.1890   62.7540   32.9550 C   0  0  1  0  0  0  0  0  0  0  0  0
   15.8300   63.0260   32.4330 C   0  0  2  0  0  0  0  0  0  0  0  0
   15.7900   64.4480   32.0410 C   0  0  1  0  0  0  0  0  0  0  0  0
   16.5880   64.5620   30.7580 C   0  0  2  0  0  0  0  0  0  0  0  0
   17.9350   63.9960   30.8110 O   0  0  0  0  0  0  0  0  0  0  0  0
   19.3580   63.9220   32.7190 C   0  0  0  0  0  0  0  0  0  0  0  0
   21.7640   63.1910   32.9750 C   0  0  0  0  0  0  0  0  0  0  0  0
   21.9270   61.9200   33.5530 C   0  0  0  0  0  0  0  0  0  0  0  0
   22.9720   61.6530   34.4010 C   0  0  0  0  0  0  0  0  0  0  0  0
   23.9070   62.6400   34.6910 C   0  0  0  0  0  0  0  0  0  0  0  0
   25.0760   62.3780   35.5930 C   0  0  0  0  0  0  0  0  0  0  0  0
   23.7680   63.8970   34.1100 C   0  0  0  0  0  0  0  0  0  0  0  0
   22.7030   64.1700   33.2570 C   0  0  0  0  0  0  0  0  0  0  0  0
   14.9450   62.8280   33.5810 O   0  0  0  0  0  0  0  0  0  0  0  0
   14.5470   61.9460   33.4670 H   0  0  0  0  0  0  0  0  0  0  0  0
   17.3560   61.3330   33.2340 O   0  0  0  0  0  0  0  0  0  0  0  0
   16.9450   61.1960   34.0900 H   0  0  0  0  0  0  0  0  0  0  0  0
   14.4710   64.8810   31.6570 O   0  0  0  0  0  0  0  0  0  0  0  0
   13.8940   64.6920   32.4040 H   0  0  0  0  0  0  0  0  0  0  0  0
   16.7030   66.0040   30.3180 C   0  0  0  0  0  0  0  0  0  0  0  0
   15.6910   66.3870   29.3400 O   0  0  0  0  0  0  0  0  0  0  0  0
   15.4510   65.6170   28.7940 H   0  0  0  0  0  0  0  0  0  0  0  0
  1 11  1  0  0  0  0
  1 12  1  1  0  0  0
  2  4  1  0  0  0  0
  2  3  1  0  0  0  0
  2  1  1  0  0  0  0
  4  5  1  0  0  0  0
  5 11  1  1  0  0  0
  6  5  1  6  0  0  0
  6 21  1  0  0  0  0
  7  6  1  0  0  0  0
  7 19  1  1  0  0  0
  8 23  1  6  0  0  0
  8  7  1  0  0  0  0
  9 25  1  1  0  0  0
  9 10  1  0  0  0  0
  9  8  1  0  0  0  0
 10  5  1  0  0  0  0
 12 18  2  0  0  0  0
 12 13  1  0  0  0  0
 13 14  2  0  0  0  0
 14 15  1  0  0  0  0
 15 16  1  0  0  0  0
 17 15  2  0  0  0  0
 18 17  1  0  0  0  0
 20 19  1  0  0  0  0
 21 22  1  0  0  0  0
 23 24  1  0  0  0  0
 26 25  1  0  0  0  0
 27 26  1  0  0  0  0
M  END
>  <minimizedAffinity>
-8.01729107

$$$$

 OpenBabel12271915213D

 27 29  0  0  1  0  0  0  0  0999 V2000
   20.4690   63.6390   32.6270 C   0  0  1  0  0  0  0  0  0  0  0  0
   20.6320   63.1470   31.2790 N   0  0  0  0  0  0  0  0  0  0  0  0
   21.3980   62.4420   31.0760 H   0  0  0  0  0  0  0  0  0  0  0  0
   19.3180   62.3570   30.9270 O   0  0  0  0  0  0  0  0  0  0  0  0
   18.4270   62.6500   32.0090 C   0  0  2  0  0  0  0  0  0  0  0  0
   17.7250   61.3280   32.2960 C   0  0  1  0  0  0  0  0  0  0  0  0
   16.3200   61.3300   31.8260 C   0  0  2  0  0  0  0  0  0  0  0  0
   15.6720   62.5290   32.3900 C   0  0  1  0  0  0  0  0  0  0  0  0
   16.2080   63.7130   31.6110 C   0  0  2  0  0  0  0  0  0  0  0  0
   17.6660   63.8010   31.5360 O   0  0  0  0  0  0  0  0  0  0  0  0
   19.2060   63.0880   33.2060 C   0  0  0  0  0  0  0  0  0  0  0  0
   21.7170   63.3350   33.3710 C   0  0  0  0  0  0  0  0  0  0  0  0
   21.9160   62.0420   33.8860 C   0  0  0  0  0  0  0  0  0  0  0  0
   23.0530   61.7250   34.5860 C   0  0  0  0  0  0  0  0  0  0  0  0
   24.0440   62.6790   34.7830 C   0  0  0  0  0  0  0  0  0  0  0  0
   25.3100   62.3610   35.5210 C   0  0  0  0  0  0  0  0  0  0  0  0
   23.8660   63.9570   34.2620 C   0  0  0  0  0  0  0  0  0  0  0  0
   22.7100   64.2830   33.5590 C   0  0  0  0  0  0  0  0  0  0  0  0
   15.7230   60.1410   32.4360 O   0  0  0  0  0  0  0  0  0  0  0  0
   15.6990   59.4610   31.7380 H   0  0  0  0  0  0  0  0  0  0  0  0
   18.4740   60.2470   31.6670 O   0  0  0  0  0  0  0  0  0  0  0  0
   18.2520   59.4620   32.1710 H   0  0  0  0  0  0  0  0  0  0  0  0
   14.2560   62.5690   32.1320 O   0  0  0  0  0  0  0  0  0  0  0  0
   13.8910   61.7540   32.4920 H   0  0  0  0  0  0  0  0  0  0  0  0
   15.6890   65.0150   32.1770 C   0  0  0  0  0  0  0  0  0  0  0  0
   14.9700   64.8460   33.4350 O   0  0  0  0  0  0  0  0  0  0  0  0
   14.5330   63.9760   33.4530 H   0  0  0  0  0  0  0  0  0  0  0  0
  1 11  1  0  0  0  0
  1 12  1  1  0  0  0
  2  1  1  0  0  0  0
  3  2  1  0  0  0  0
  4  2  1  0  0  0  0
  4  5  1  0  0  0  0
  5 11  1  1  0  0  0
  6  5  1  6  0  0  0
  7  6  1  0  0  0  0
  7  8  1  0  0  0  0
  7 19  1  1  0  0  0
  8 23  1  6  0  0  0
  9 25  1  1  0  0  0
  9  8  1  0  0  0  0
 10  9  1  0  0  0  0
 10  5  1  0  0  0  0
 12 18  2  0  0  0  0
 12 13  1  0  0  0  0
 13 14  2  0  0  0  0
 14 15  1  0  0  0  0
 15 16  1  0  0  0  0
 17 15  2  0  0  0  0
 18 17  1  0  0  0  0
 20 19  1  0  0  0  0
 21 22  1  0  0  0  0
 21  6  1  0  0  0  0
 23 24  1  0  0  0  0
 25 26  1  0  0  0  0
 26 27  1  0  0  0  0
M  END
>  <minimizedAffinity>
-7.82540607

$$$$

 OpenBabel12271915213D

 27 29  0  0  1  0  0  0  0  0999 V2000
   20.0890   62.1620   32.9770 C   0  0  1  0  0  0  0  0  0  0  0  0
   20.1140   62.5470   34.3690 N   0  0  0  0  0  0  0  0  0  0  0  0
   19.7180   61.8810   35.0950 H   0  0  0  0  0  0  0  0  0  0  0  0
   21.6280   62.6600   34.7770 O   0  0  0  0  0  0  0  0  0  0  0  0
   22.3390   62.5530   33.5380 C   0  0  2  0  0  0  0  0  0  0  0  0
   23.5480   61.6830   33.8630 C   0  0  1  0  0  0  0  0  0  0  0  0
   24.8020   62.4700   33.9150 C   0  0  2  0  0  0  0  0  0  0  0  0
   24.8890   63.2340   32.6560 C   0  0  1  0  0  0  0  0  0  0  0  0
   23.8750   64.3550   32.7640 C   0  0  2  0  0  0  0  0  0  0  0  0
   22.5190   63.9370   33.1150 O   0  0  0  0  0  0  0  0  0  0  0  0
   21.4820   61.8790   32.5170 C   0  0  0  0  0  0  0  0  0  0  0  0
   19.1140   61.0530   32.8340 C   0  0  0  0  0  0  0  0  0  0  0  0
   19.5580   59.7240   32.9510 C   0  0  0  0  0  0  0  0  0  0  0  0
   18.6890   58.6710   32.8160 C   0  0  0  0  0  0  0  0  0  0  0  0
   17.3380   58.9020   32.5790 C   0  0  0  0  0  0  0  0  0  0  0  0
   16.3550   57.7770   32.4520 C   0  0  0  0  0  0  0  0  0  0  0  0
   16.8840   60.2140   32.4800 C   0  0  0  0  0  0  0  0  0  0  0  0
   17.7660   61.2830   32.6080 C   0  0  0  0  0  0  0  0  0  0  0  0
   25.8690   61.4670   33.9320 O   0  0  0  0  0  0  0  0  0  0  0  0
   26.1610   61.3990   34.8590 H   0  0  0  0  0  0  0  0  0  0  0  0
   23.3160   61.0060   35.1340 O   0  0  0  0  0  0  0  0  0  0  0  0
   23.8680   60.2220   35.1040 H   0  0  0  0  0  0  0  0  0  0  0  0
   26.1440   63.9270   32.5120 O   0  0  0  0  0  0  0  0  0  0  0  0
   26.8330   63.2580   32.5820 H   0  0  0  0  0  0  0  0  0  0  0  0
   23.8030   65.1460   31.4780 C   0  0  0  0  0  0  0  0  0  0  0  0
   24.4030   66.4710   31.5850 O   0  0  0  0  0  0  0  0  0  0  0  0
   24.3040   66.8070   32.4940 H   0  0  0  0  0  0  0  0  0  0  0  0
  1 12  1  1  0  0  0
  1  2  1  0  0  0  0
  2  4  1  0  0  0  0
  2  3  1  0  0  0  0
  5 11  1  6  0  0  0
  5  4  1  0  0  0  0
  6  5  1  1  0  0  0
  6  7  1  0  0  0  0
  6 21  1  0  0  0  0
  7 19  1  6  0  0  0
  8 23  1  1  0  0  0
  8  9  1  0  0  0  0
  8  7  1  0  0  0  0
  9 25  1  6  0  0  0
  9 10  1  0  0  0  0
 10  5  1  0  0  0  0
 11  1  1  0  0  0  0
 12 13  1  0  0  0  0
 14 13  2  0  0  0  0
 15 14  1  0  0  0  0
 16 15  1  0  0  0  0
 17 15  2  0  0  0  0
 17 18  1  0  0  0  0
 18 12  2  0  0  0  0
 19 20  1  0  0  0  0
 22 21  1  0  0  0  0
 23 24  1  0  0  0  0
 25 26  1  0  0  0  0
 26 27  1  0  0  0  0
M  END
>  <minimizedAffinity>
-7.74393368

$$$$

 OpenBabel12271915213D

 27 29  0  0  1  0  0  0  0  0999 V2000
   21.0420   62.1630   33.4760 C   0  0  1  0  0  0  0  0  0  0  0  0
   20.5500   63.0480   34.5070 N   0  0  0  0  0  0  0  0  0  0  0  0
   21.0560   63.9630   34.6850 H   0  0  0  0  0  0  0  0  0  0  0  0
   19.1190   63.5150   34.0530 O   0  0  0  0  0  0  0  0  0  0  0  0
   18.8180   62.6900   32.9210 C   0  0  2  0  0  0  0  0  0  0  0  0
   18.1350   63.6280   31.9330 C   0  0  1  0  0  0  0  0  0  0  0  0
   16.6770   63.3790   31.8450 C   0  0  2  0  0  0  0  0  0  0  0  0
   16.4970   61.9380   31.5830 C   0  0  1  0  0  0  0  0  0  0  0  0
   16.8040   61.2230   32.8830 C   0  0  2  0  0  0  0  0  0  0  0  0
   18.0900   61.5620   33.4910 O   0  0  0  0  0  0  0  0  0  0  0  0
   20.0830   62.1560   32.3310 C   0  0  0  0  0  0  0  0  0  0  0  0
   22.4340   62.5690   33.1620 C   0  0  0  0  0  0  0  0  0  0  0  0
   22.6590   63.6740   32.3220 C   0  0  0  0  0  0  0  0  0  0  0  0
   23.9310   64.0740   32.0010 C   0  0  0  0  0  0  0  0  0  0  0  0
   25.0300   63.4010   32.5210 C   0  0  0  0  0  0  0  0  0  0  0  0
   26.4350   63.8260   32.2120 C   0  0  0  0  0  0  0  0  0  0  0  0
   24.8210   62.3170   33.3680 C   0  0  0  0  0  0  0  0  0  0  0  0
   23.5300   61.9040   33.6880 C   0  0  0  0  0  0  0  0  0  0  0  0
   16.2420   64.1300   30.6670 O   0  0  0  0  0  0  0  0  0  0  0  0
   15.8340   64.9490   31.0040 H   0  0  0  0  0  0  0  0  0  0  0  0
   18.3950   65.0070   32.3320 O   0  0  0  0  0  0  0  0  0  0  0  0
   18.3040   65.5210   31.5270 H   0  0  0  0  0  0  0  0  0  0  0  0
   15.1240   61.5890   31.3220 O   0  0  0  0  0  0  0  0  0  0  0  0
   14.8410   62.1330   30.5800 H   0  0  0  0  0  0  0  0  0  0  0  0
   16.7530   59.7230   32.7020 C   0  0  0  0  0  0  0  0  0  0  0  0
   17.9890   59.0560   33.0960 O   0  0  0  0  0  0  0  0  0  0  0  0
   18.7480   59.6460   32.9420 H   0  0  0  0  0  0  0  0  0  0  0  0
  1 12  1  6  0  0  0
  1  2  1  0  0  0  0
  2  3  1  0  0  0  0
  4  2  1  0  0  0  0
  5 11  1  6  0  0  0
  5 10  1  0  0  0  0
  5  4  1  0  0  0  0
  6 21  1  0  0  0  0
  6  5  1  1  0  0  0
  7 19  1  6  0  0  0
  7  6  1  0  0  0  0
  8 23  1  1  0  0  0
  8  7  1  0  0  0  0
  8  9  1  0  0  0  0
  9 25  1  6  0  0  0
  9 10  1  0  0  0  0
 11  1  1  0  0  0  0
 12 18  2  0  0  0  0
 13 12  1  0  0  0  0
 14 13  2  0  0  0  0
 14 15  1  0  0  0  0
 15 17  2  0  0  0  0
 16 15  1  0  0  0  0
 17 18  1  0  0  0  0
 19 20  1  0  0  0  0
 22 21  1  0  0  0  0
 24 23  1  0  0  0  0
 25 26  1  0  0  0  0
 27 26  1  0  0  0  0
M  END
>  <minimizedAffinity>
-7.67961025

$$$$

 OpenBabel12271915213D

 27 29  0  0  1  0  0  0  0  0999 V2000
   19.7830   63.9780   32.7180 C   0  0  1  0  0  0  0  0  0  0  0  0
   19.9210   64.1710   34.1440 N   0  0  0  0  0  0  0  0  0  0  0  0
   19.3670   63.5520   34.8040 H   0  0  0  0  0  0  0  0  0  0  0  0
   21.4130   63.8280   34.5010 O   0  0  0  0  0  0  0  0  0  0  0  0
   22.0600   63.6870   33.2310 C   0  0  2  0  0  0  0  0  0  0  0  0
   22.9940   62.4950   33.4060 C   0  0  1  0  0  0  0  0  0  0  0  0
   24.4130   62.9080   33.4970 C   0  0  2  0  0  0  0  0  0  0  0  0
   24.6920   63.7690   32.3320 C   0  0  1  0  0  0  0  0  0  0  0  0
   24.0170   65.0970   32.6070 C   0  0  2  0  0  0  0  0  0  0  0  0
   22.6010   65.0140   32.9620 O   0  0  0  0  0  0  0  0  0  0  0  0
   21.0450   63.3930   32.1740 C   0  0  0  0  0  0  0  0  0  0  0  0
   18.5450   63.1930   32.4890 C   0  0  0  0  0  0  0  0  0  0  0  0
   18.5180   61.8300   32.8310 C   0  0  0  0  0  0  0  0  0  0  0  0
   17.3960   61.0680   32.6260 C   0  0  0  0  0  0  0  0  0  0  0  0
   16.2490   61.6410   32.0890 C   0  0  0  0  0  0  0  0  0  0  0  0
   14.9950   60.8460   31.8740 C   0  0  0  0  0  0  0  0  0  0  0  0
   16.2570   62.9940   31.7630 C   0  0  0  0  0  0  0  0  0  0  0  0
   17.3980   63.7650   31.9630 C   0  0  0  0  0  0  0  0  0  0  0  0
   25.1720   61.6640   33.3570 O   0  0  0  0  0  0  0  0  0  0  0  0
   25.4420   61.4090   34.2580 H   0  0  0  0  0  0  0  0  0  0  0  0
   22.5980   61.7550   34.5990 O   0  0  0  0  0  0  0  0  0  0  0  0
   22.9200   60.8620   34.4570 H   0  0  0  0  0  0  0  0  0  0  0  0
   26.0860   64.1160   32.2180 O   0  0  0  0  0  0  0  0  0  0  0  0
   26.5700   63.2840   32.1830 H   0  0  0  0  0  0  0  0  0  0  0  0
   24.1500   66.0280   31.4240 C   0  0  0  0  0  0  0  0  0  0  0  0
   24.5780   67.3710   31.7970 O   0  0  0  0  0  0  0  0  0  0  0  0
   24.2500   67.5880   32.6880 H   0  0  0  0  0  0  0  0  0  0  0  0
  1 12  1  1  0  0  0
  1  2  1  0  0  0  0
  2  4  1  0  0  0  0
  2  3  1  0  0  0  0
  5 11  1  6  0  0  0
  5  4  1  0  0  0  0
  6  5  1  1  0  0  0
  6  7  1  0  0  0  0
  6 21  1  0  0  0  0
  7 19  1  6  0  0  0
  8 23  1  1  0  0  0
  8  9  1  0  0  0  0
  8  7  1  0  0  0  0
  9 25  1  6  0  0  0
  9 10  1  0  0  0  0
 10  5  1  0  0  0  0
 11  1  1  0  0  0  0
 12 13  2  0  0  0  0
 14 13  1  0  0  0  0
 15 14  2  0  0  0  0
 16 15  1  0  0  0  0
 17 18  2  0  0  0  0
 17 15  1  0  0  0  0
 18 12  1  0  0  0  0
 19 20  1  0  0  0  0
 22 21  1  0  0  0  0
 24 23  1  0  0  0  0
 25 26  1  0  0  0  0
 26 27  1  0  0  0  0
M  END
>  <minimizedAffinity>
-7.5327239

$$$$

 OpenBabel12271915213D

 27 29  0  0  1  0  0  0  0  0999 V2000
   19.8580   62.9150   32.6880 C   0  0  1  0  0  0  0  0  0  0  0  0
   19.9110   62.0930   31.5010 N   0  0  0  0  0  0  0  0  0  0  0  0
   20.6630   61.3490   31.4230 H   0  0  0  0  0  0  0  0  0  0  0  0
   18.5790   61.2580   31.4730 O   0  0  0  0  0  0  0  0  0  0  0  0
   17.7790   61.8300   32.5140 C   0  0  2  0  0  0  0  0  0  0  0  0
   17.1140   60.6350   33.1870 C   0  0  1  0  0  0  0  0  0  0  0  0
   15.6750   60.5360   32.8500 C   0  0  2  0  0  0  0  0  0  0  0  0
   15.0670   61.8490   33.1410 C   0  0  1  0  0  0  0  0  0  0  0  0
   15.5270   62.7870   32.0440 C   0  0  2  0  0  0  0  0  0  0  0  0
   16.9720   62.8330   31.8280 O   0  0  0  0  0  0  0  0  0  0  0  0
   18.6530   62.5480   33.4910 C   0  0  0  0  0  0  0  0  0  0  0  0
   21.1660   62.7940   33.3780 C   0  0  0  0  0  0  0  0  0  0  0  0
   21.9580   63.9410   33.5630 C   0  0  0  0  0  0  0  0  0  0  0  0
   23.1770   63.8690   34.1880 C   0  0  0  0  0  0  0  0  0  0  0  0
   23.6460   62.6530   34.6710 C   0  0  0  0  0  0  0  0  0  0  0  0
   24.9620   62.5400   35.3810 C   0  0  0  0  0  0  0  0  0  0  0  0
   22.8630   61.5130   34.5100 C   0  0  0  0  0  0  0  0  0  0  0  0
   21.6300   61.5840   33.8680 C   0  0  0  0  0  0  0  0  0  0  0  0
   15.1400   59.5510   33.7910 O   0  0  0  0  0  0  0  0  0  0  0  0
   15.0630   58.7160   33.2950 H   0  0  0  0  0  0  0  0  0  0  0  0
   17.8160   59.4190   32.7950 O   0  0  0  0  0  0  0  0  0  0  0  0
   17.6430   58.7920   33.5000 H   0  0  0  0  0  0  0  0  0  0  0  0
   13.6340   61.8410   33.0000 O   0  0  0  0  0  0  0  0  0  0  0  0
   13.3070   61.1500   33.5860 H   0  0  0  0  0  0  0  0  0  0  0  0
   15.0460   64.1970   32.2990 C   0  0  0  0  0  0  0  0  0  0  0  0
   13.7220   64.4600   31.7480 O   0  0  0  0  0  0  0  0  0  0  0  0
   13.5840   63.9230   30.9470 H   0  0  0  0  0  0  0  0  0  0  0  0
  1 12  1  1  0  0  0
  1 11  1  0  0  0  0
  2  1  1  0  0  0  0
  3  2  1  0  0  0  0
  4  2  1  0  0  0  0
  4  5  1  0  0  0  0
  5 11  1  1  0  0  0
  6  5  1  6  0  0  0
  7  8  1  0  0  0  0
  7  6  1  0  0  0  0
  7 19  1  1  0  0  0
  8 23  1  6  0  0  0
  9 25  1  1  0  0  0
  9  8  1  0  0  0  0
 10  9  1  0  0  0  0
 10  5  1  0  0  0  0
 12 13  2  0  0  0  0
 12 18  1  0  0  0  0
 13 14  1  0  0  0  0
 14 15  2  0  0  0  0
 15 16  1  0  0  0  0
 17 15  1  0  0  0  0
 18 17  2  0  0  0  0
 20 19  1  0  0  0  0
 21  6  1  0  0  0  0
 21 22  1  0  0  0  0
 23 24  1  0  0  0  0
 26 25  1  0  0  0  0
 27 26  1  0  0  0  0
M  END
>  <minimizedAffinity>
-7.40707684

$$$$

 OpenBabel12271915213D

 27 29  0  0  1  0  0  0  0  0999 V2000
   24.4100   62.7380   33.6540 C   0  0  1  0  0  0  0  0  0  0  0  0
   24.6060   63.9750   34.3750 N   0  0  0  0  0  0  0  0  0  0  0  0
   25.4030   64.6160   34.0910 H   0  0  0  0  0  0  0  0  0  0  0  0
   23.3300   64.8550   34.1130 O   0  0  0  0  0  0  0  0  0  0  0  0
   22.4160   63.9690   33.4550 C   0  0  2  0  0  0  0  0  0  0  0  0
   21.7660   64.8230   32.3730 C   0  0  1  0  0  0  0  0  0  0  0  0
   20.3670   65.1770   32.7080 C   0  0  2  0  0  0  0  0  0  0  0  0
   19.6660   63.9200   33.0340 C   0  0  1  0  0  0  0  0  0  0  0  0
   20.1610   63.4950   34.4010 C   0  0  2  0  0  0  0  0  0  0  0  0
   21.6140   63.4200   34.5420 O   0  0  0  0  0  0  0  0  0  0  0  0
   23.1660   62.8350   32.8330 C   0  0  0  0  0  0  0  0  0  0  0  0
   25.6620   62.4470   32.9130 C   0  0  0  0  0  0  0  0  0  0  0  0
   26.0240   63.2570   31.8220 C   0  0  0  0  0  0  0  0  0  0  0  0
   27.1680   63.0140   31.1060 C   0  0  0  0  0  0  0  0  0  0  0  0
   28.0090   61.9650   31.4620 C   0  0  0  0  0  0  0  0  0  0  0  0
   29.2810   61.6860   30.7190 C   0  0  0  0  0  0  0  0  0  0  0  0
   27.6720   61.1680   32.5520 C   0  0  0  0  0  0  0  0  0  0  0  0
   26.5060   61.4080   33.2730 C   0  0  0  0  0  0  0  0  0  0  0  0
   19.8130   65.7170   31.4660 O   0  0  0  0  0  0  0  0  0  0  0  0
   19.8240   66.6870   31.5640 H   0  0  0  0  0  0  0  0  0  0  0  0
   22.5650   66.0260   32.1750 O   0  0  0  0  0  0  0  0  0  0  0  0
   22.3700   66.3120   31.2810 H   0  0  0  0  0  0  0  0  0  0  0  0
   18.2510   64.1090   33.2300 O   0  0  0  0  0  0  0  0  0  0  0  0
   17.9170   64.5150   32.4240 H   0  0  0  0  0  0  0  0  0  0  0  0
   19.5830   62.1540   34.7930 C   0  0  0  0  0  0  0  0  0  0  0  0
   19.6450   61.1670   33.7210 O   0  0  0  0  0  0  0  0  0  0  0  0
   19.5770   61.6120   32.8570 H   0  0  0  0  0  0  0  0  0  0  0  0
  1 12  1  6  0  0  0
  1  2  1  0  0  0  0
  3  2  1  0  0  0  0
  4  2  1  0  0  0  0
  5 11  1  6  0  0  0
  5  4  1  0  0  0  0
  5 10  1  0  0  0  0
  6  7  1  0  0  0  0
  6  5  1  1  0  0  0
  7 19  1  6  0  0  0
  7  8  1  0  0  0  0
  8 23  1  1  0  0  0
  8  9  1  0  0  0  0
  9 10  1  0  0  0  0
  9 25  1  6  0  0  0
 11  1  1  0  0  0  0
 12 18  1  0  0  0  0
 13 12  2  0  0  0  0
 14 15  2  0  0  0  0
 14 13  1  0  0  0  0
 15 17  1  0  0  0  0
 16 15  1  0  0  0  0
 17 18  2  0  0  0  0
 19 20  1  0  0  0  0
 21  6  1  0  0  0  0
 22 21  1  0  0  0  0
 24 23  1  0  0  0  0
 26 25  1  0  0  0  0
 27 26  1  0  0  0  0
M  END
>  <minimizedAffinity>
-7.40491104

$$$$

 OpenBabel12271915213D

 27 29  0  0  1  0  0  0  0  0999 V2000
   19.9020   61.9360   32.7370 C   0  0  1  0  0  0  0  0  0  0  0  0
   20.1860   61.3580   31.4430 N   0  0  0  0  0  0  0  0  0  0  0  0
   21.1720   61.0270   31.2320 H   0  0  0  0  0  0  0  0  0  0  0  0
   19.3380   60.0370   31.3460 O   0  0  0  0  0  0  0  0  0  0  0  0
   18.4740   60.0840   32.4870 C   0  0  2  0  0  0  0  0  0  0  0  0
   18.4460   58.6520   33.0070 C   0  0  1  0  0  0  0  0  0  0  0  0
   17.1600   57.9780   32.7130 C   0  0  2  0  0  0  0  0  0  0  0  0
   16.0840   58.8560   33.2110 C   0  0  1  0  0  0  0  0  0  0  0  0
   15.9950   60.0180   32.2430 C   0  0  2  0  0  0  0  0  0  0  0  0
   17.2570   60.7090   31.9820 O   0  0  0  0  0  0  0  0  0  0  0  0
   19.0490   60.9950   33.5240 C   0  0  0  0  0  0  0  0  0  0  0  0
   21.1970   62.3160   33.3530 C   0  0  0  0  0  0  0  0  0  0  0  0
   21.9940   61.3250   33.9540 C   0  0  0  0  0  0  0  0  0  0  0  0
   23.1930   61.6370   34.5420 C   0  0  0  0  0  0  0  0  0  0  0  0
   23.6550   62.9490   34.5370 C   0  0  0  0  0  0  0  0  0  0  0  0
   24.9730   63.3230   35.1470 C   0  0  0  0  0  0  0  0  0  0  0  0
   22.8850   63.9350   33.9290 C   0  0  0  0  0  0  0  0  0  0  0  0
   21.6640   63.6200   33.3400 C   0  0  0  0  0  0  0  0  0  0  0  0
   17.1860   56.7590   33.5230 O   0  0  0  0  0  0  0  0  0  0  0  0
   17.4240   56.0350   32.9150 H   0  0  0  0  0  0  0  0  0  0  0  0
   19.5570   57.9130   32.4190 O   0  0  0  0  0  0  0  0  0  0  0  0
   19.7340   57.1970   33.0320 H   0  0  0  0  0  0  0  0  0  0  0  0
   14.7820   58.2440   33.1240 O   0  0  0  0  0  0  0  0  0  0  0  0
   14.8370   57.4180   33.6160 H   0  0  0  0  0  0  0  0  0  0  0  0
   14.9890   61.0420   32.7150 C   0  0  0  0  0  0  0  0  0  0  0  0
   13.6620   60.8490   32.1400 O   0  0  0  0  0  0  0  0  0  0  0  0
   13.7400   60.4610   31.2500 H   0  0  0  0  0  0  0  0  0  0  0  0
  1 12  1  1  0  0  0
  1 11  1  0  0  0  0
  2  1  1  0  0  0  0
  3  2  1  0  0  0  0
  4  2  1  0  0  0  0
  4  5  1  0  0  0  0
  5 11  1  1  0  0  0
  6  5  1  6  0  0  0
  7  6  1  0  0  0  0
  7  8  1  0  0  0  0
  7 19  1  1  0  0  0
  8 23  1  6  0  0  0
  9 25  1  1  0  0  0
  9  8  1  0  0  0  0
 10  9  1  0  0  0  0
 10  5  1  0  0  0  0
 12 13  1  0  0  0  0
 13 14  2  0  0  0  0
 15 14  1  0  0  0  0
 15 16  1  0  0  0  0
 17 15  2  0  0  0  0
 18 12  2  0  0  0  0
 18 17  1  0  0  0  0
 20 19  1  0  0  0  0
 21  6  1  0  0  0  0
 21 22  1  0  0  0  0
 23 24  1  0  0  0  0
 26 25  1  0  0  0  0
 27 26  1  0  0  0  0
M  END
>  <minimizedAffinity>
-7.39136219

$$$$

 OpenBabel12271915213D

 27 29  0  0  1  0  0  0  0  0999 V2000
   20.9710   68.4900   31.5300 C   0  0  1  0  0  0  0  0  0  0  0  0
   20.3160   68.0920   30.3050 N   0  0  0  0  0  0  0  0  0  0  0  0
   20.4680   67.1090   29.9350 H   0  0  0  0  0  0  0  0  0  0  0  0
   18.7700   68.1320   30.5890 O   0  0  0  0  0  0  0  0  0  0  0  0
   18.6600   68.7600   31.8710 C   0  0  2  0  0  0  0  0  0  0  0  0
   17.5660   67.9790   32.5890 C   0  0  1  0  0  0  0  0  0  0  0  0
   16.3030   68.7480   32.6840 C   0  0  2  0  0  0  0  0  0  0  0  0
   16.6350   70.0610   33.2700 C   0  0  1  0  0  0  0  0  0  0  0  0
   17.3390   70.8500   32.1840 C   0  0  2  0  0  0  0  0  0  0  0  0
   18.4730   70.1720   31.5570 O   0  0  0  0  0  0  0  0  0  0  0  0
   19.9520   68.6330   32.6130 C   0  0  0  0  0  0  0  0  0  0  0  0
   22.0680   67.5240   31.7870 C   0  0  0  0  0  0  0  0  0  0  0  0
   23.4020   67.9640   31.7330 C   0  0  0  0  0  0  0  0  0  0  0  0
   24.4440   67.1000   31.9560 C   0  0  0  0  0  0  0  0  0  0  0  0
   24.1960   65.7670   32.2620 C   0  0  0  0  0  0  0  0  0  0  0  0
   25.3090   64.8000   32.5360 C   0  0  0  0  0  0  0  0  0  0  0  0
   22.8790   65.3230   32.3370 C   0  0  0  0  0  0  0  0  0  0  0  0
   21.8210   66.1980   32.1020 C   0  0  0  0  0  0  0  0  0  0  0  0
   15.4840   68.0000   33.6390 O   0  0  0  0  0  0  0  0  0  0  0  0
   14.8470   67.4890   33.1070 H   0  0  0  0  0  0  0  0  0  0  0  0
   17.3470   66.7190   31.8890 O   0  0  0  0  0  0  0  0  0  0  0  0
   16.9770   66.1280   32.5470 H   0  0  0  0  0  0  0  0  0  0  0  0
   15.4670   70.8520   33.5580 O   0  0  0  0  0  0  0  0  0  0  0  0
   14.9170   70.3200   34.1430 H   0  0  0  0  0  0  0  0  0  0  0  0
   17.8220   72.1830   32.7080 C   0  0  0  0  0  0  0  0  0  0  0  0
   18.0270   72.1900   34.1520 O   0  0  0  0  0  0  0  0  0  0  0  0
   17.4030   71.5760   34.5790 H   0  0  0  0  0  0  0  0  0  0  0  0
  1 12  1  1  0  0  0
  1 11  1  0  0  0  0
  2  4  1  0  0  0  0
  2  1  1  0  0  0  0
  3  2  1  0  0  0  0
  4  5  1  0  0  0  0
  5 11  1  1  0  0  0
  6  5  1  6  0  0  0
  6  7  1  0  0  0  0
  7  8  1  0  0  0  0
  7 19  1  1  0  0  0
  8 23  1  6  0  0  0
  9 25  1  1  0  0  0
  9  8  1  0  0  0  0
 10  5  1  0  0  0  0
 10  9  1  0  0  0  0
 12 18  1  0  0  0  0
 13 12  2  0  0  0  0
 13 14  1  0  0  0  0
 14 15  2  0  0  0  0
 15 17  1  0  0  0  0
 15 16  1  0  0  0  0
 18 17  2  0  0  0  0
 20 19  1  0  0  0  0
 21 22  1  0  0  0  0
 21  6  1  0  0  0  0
 23 24  1  0  0  0  0
 25 26  1  0  0  0  0
 26 27  1  0  0  0  0
M  END
>  <minimizedAffinity>
-7.37691832

$$$$
