
 OpenBabel12271915103D

 22 23  0  0  1  0  0  0  0  0999 V2000
   23.7990   66.3670   31.4740 C   0  0  2  0  0  0  0  0  0  0  0  0
   22.7640   66.2350   32.5770 C   0  0  2  0  0  0  0  0  0  0  0  0
   23.2630   65.1650   33.5340 O   0  0  0  0  0  0  0  0  0  0  0  0
   24.5720   64.8150   33.0060 C   0  0  2  0  0  0  0  0  0  0  0  0
   24.5090   65.0470   31.5470 C   0  0  0  0  0  0  0  0  0  0  0  0
   24.8950   63.3870   33.2040 C   0  0  0  0  0  0  0  0  0  0  0  0
   24.1230   62.6610   34.1010 C   0  0  0  0  0  0  0  0  0  0  0  0
   24.6060   61.4690   34.6480 C   0  0  0  0  0  0  0  0  0  0  0  0
   23.7950   60.7750   35.6770 C   0  0  0  0  0  0  0  0  0  0  0  0
   25.8350   61.0100   34.1960 C   0  0  0  0  0  0  0  0  0  0  0  0
   26.5850   61.6620   33.2670 N   0  0  0  0  0  0  0  0  0  0  0  0
   26.0870   62.8420   32.7860 C   0  0  0  0  0  0  0  0  0  0  0  0
   26.4170   59.8640   34.6910 O   0  0  0  0  0  0  0  0  0  0  0  0
   26.3300   59.8250   35.6520 H   0  0  0  0  0  0  0  0  0  0  0  0
   24.7640   67.3920   31.7810 O   0  0  0  0  0  0  0  0  0  0  0  0
   24.2360   68.1900   32.0000 H   0  0  0  0  0  0  0  0  0  0  0  0
   21.4340   65.7790   32.0380 C   0  0  0  0  0  0  0  0  0  0  0  0
   20.8310   64.8580   32.9390 O   0  0  0  0  0  0  0  0  0  0  0  0
   20.2520   63.4390   32.2870 P   0  0  0  0  0  0  0  0  0  0  0  0
   19.7410   62.6600   33.4800 O   0  0  0  0  0  0  0  0  0  0  0  0
   21.4820   62.8290   31.6920 O   0  0  0  0  0  0  0  0  0  0  0  0
   19.1760   63.8400   31.3400 O   0  0  0  0  0  0  0  0  0  0  0  0
  1  5  1  0  0  0  0
  1 15  1  1  0  0  0
  1  2  1  0  0  0  0
  2 17  1  6  0  0  0
  2  3  1  0  0  0  0
  4  6  1  6  0  0  0
  4  3  1  0  0  0  0
  5  4  1  0  0  0  0
  6  7  1  0  0  0  0
  7  8  2  0  0  0  0
  8  9  1  0  0  0  0
 10  8  1  0  0  0  0
 10 13  1  0  0  0  0
 11 10  2  0  0  0  0
 12  6  2  0  0  0  0
 12 11  1  0  0  0  0
 13 14  1  0  0  0  0
 15 16  1  0  0  0  0
 17 18  1  0  0  0  0
 19 18  1  0  0  0  0
 19 20  1  0  0  0  0
 21 19  1  0  0  0  0
 22 19  2  0  0  0  0
M  END
>  <minimizedAffinity>
-7.56864023

$$$$

 OpenBabel12271915103D

 22 23  0  0  1  0  0  0  0  0999 V2000
   24.8850   65.3620   33.1540 C   0  0  2  0  0  0  0  0  0  0  0  0
   25.2990   64.2000   32.2690 C   0  0  2  0  0  0  0  0  0  0  0  0
   24.0300   63.6210   31.6670 O   0  0  0  0  0  0  0  0  0  0  0  0
   22.9850   64.5140   32.1400 C   0  0  2  0  0  0  0  0  0  0  0  0
   23.4470   65.0430   33.4420 C   0  0  0  0  0  0  0  0  0  0  0  0
   21.7110   63.8100   32.3860 C   0  0  0  0  0  0  0  0  0  0  0  0
   21.1270   63.9330   33.6410 C   0  0  0  0  0  0  0  0  0  0  0  0
   20.1870   62.9960   34.0800 C   0  0  0  0  0  0  0  0  0  0  0  0
   19.6620   63.1050   35.4610 C   0  0  0  0  0  0  0  0  0  0  0  0
   19.8080   62.0050   33.1860 C   0  0  0  0  0  0  0  0  0  0  0  0
   20.3090   61.8970   31.9250 N   0  0  0  0  0  0  0  0  0  0  0  0
   21.2510   62.8160   31.5530 C   0  0  0  0  0  0  0  0  0  0  0  0
   18.9130   61.0140   33.5260 O   0  0  0  0  0  0  0  0  0  0  0  0
   19.1000   60.6740   34.4100 H   0  0  0  0  0  0  0  0  0  0  0  0
   24.9130   66.6070   32.4300 O   0  0  0  0  0  0  0  0  0  0  0  0
   25.8030   66.6500   32.0190 H   0  0  0  0  0  0  0  0  0  0  0  0
   25.9660   63.1080   33.0630 C   0  0  0  0  0  0  0  0  0  0  0  0
   25.0920   61.9920   33.1890 O   0  0  0  0  0  0  0  0  0  0  0  0
   24.6910   61.5230   34.7350 P   0  0  0  0  0  0  0  0  0  0  0  0
   25.0050   62.7330   35.5880 O   0  0  0  0  0  0  0  0  0  0  0  0
   25.6340   60.3880   34.9850 O   0  0  0  0  0  0  0  0  0  0  0  0
   23.2390   61.1930   34.6940 O   0  0  0  0  0  0  0  0  0  0  0  0
  1 15  1  6  0  0  0
  1  5  1  0  0  0  0
  2 17  1  1  0  0  0
  2  1  1  0  0  0  0
  3  4  1  0  0  0  0
  3  2  1  0  0  0  0
  4  6  1  1  0  0  0
  4  5  1  0  0  0  0
  6  7  1  0  0  0  0
  7  8  2  0  0  0  0
  8  9  1  0  0  0  0
 10 13  1  0  0  0  0
 10  8  1  0  0  0  0
 11 10  2  0  0  0  0
 12 11  1  0  0  0  0
 12  6  2  0  0  0  0
 13 14  1  0  0  0  0
 16 15  1  0  0  0  0
 17 18  1  0  0  0  0
 18 19  1  0  0  0  0
 19 21  1  0  0  0  0
 19 20  1  0  0  0  0
 22 19  2  0  0  0  0
M  END
>  <minimizedAffinity>
-7.51304245

$$$$

 OpenBabel12271915103D

 22 23  0  0  1  0  0  0  0  0999 V2000
   20.2790   61.5470   33.3020 C   0  0  2  0  0  0  0  0  0  0  0  0
   21.0570   62.0500   34.5040 C   0  0  2  0  0  0  0  0  0  0  0  0
   21.1330   63.5630   34.3870 O   0  0  0  0  0  0  0  0  0  0  0  0
   20.3300   63.8580   33.2110 C   0  0  2  0  0  0  0  0  0  0  0  0
   20.4340   62.6770   32.3270 C   0  0  0  0  0  0  0  0  0  0  0  0
   20.8460   65.0140   32.4520 C   0  0  0  0  0  0  0  0  0  0  0  0
   22.2230   65.1670   32.3500 C   0  0  0  0  0  0  0  0  0  0  0  0
   22.7760   66.4110   32.0310 C   0  0  0  0  0  0  0  0  0  0  0  0
   24.2510   66.5570   32.0290 C   0  0  0  0  0  0  0  0  0  0  0  0
   21.8980   67.4450   31.7430 C   0  0  0  0  0  0  0  0  0  0  0  0
   20.5440   67.3110   31.7660 N   0  0  0  0  0  0  0  0  0  0  0  0
   20.0500   66.0860   32.1180 C   0  0  0  0  0  0  0  0  0  0  0  0
   22.3350   68.7180   31.4470 O   0  0  0  0  0  0  0  0  0  0  0  0
   23.0460   68.9820   32.0450 H   0  0  0  0  0  0  0  0  0  0  0  0
   18.8740   61.4270   33.6010 O   0  0  0  0  0  0  0  0  0  0  0  0
   18.8270   60.8930   34.4240 H   0  0  0  0  0  0  0  0  0  0  0  0
   22.4690   61.5230   34.5100 C   0  0  0  0  0  0  0  0  0  0  0  0
   23.3840   62.5820   34.7630 O   0  0  0  0  0  0  0  0  0  0  0  0
   24.7700   62.6130   33.8400 P   0  0  0  0  0  0  0  0  0  0  0  0
   25.6470   61.5380   34.4440 O   0  0  0  0  0  0  0  0  0  0  0  0
   25.2990   63.9900   34.0930 O   0  0  0  0  0  0  0  0  0  0  0  0
   24.3360   62.3070   32.4490 O   0  0  0  0  0  0  0  0  0  0  0  0
  1 15  1  1  0  0  0
  1  2  1  0  0  0  0
  2 17  1  6  0  0  0
  3  2  1  0  0  0  0
  4  6  1  6  0  0  0
  4  3  1  0  0  0  0
  5  4  1  0  0  0  0
  5  1  1  0  0  0  0
  7  6  1  0  0  0  0
  8  7  2  0  0  0  0
  9  8  1  0  0  0  0
 10 11  2  0  0  0  0
 10  8  1  0  0  0  0
 11 12  1  0  0  0  0
 12  6  2  0  0  0  0
 13 10  1  0  0  0  0
 13 14  1  0  0  0  0
 15 16  1  0  0  0  0
 17 18  1  0  0  0  0
 19 21  1  0  0  0  0
 19 20  1  0  0  0  0
 19 18  1  0  0  0  0
 22 19  2  0  0  0  0
M  END
>  <minimizedAffinity>
-7.41782808

$$$$

 OpenBabel12271915103D

 22 23  0  0  1  0  0  0  0  0999 V2000
   19.7450   62.9200   34.5300 C   0  0  2  0  0  0  0  0  0  0  0  0
   19.8910   61.7190   33.6120 C   0  0  2  0  0  0  0  0  0  0  0  0
   21.3650   61.3530   33.5850 O   0  0  0  0  0  0  0  0  0  0  0  0
   21.9650   62.2700   34.5410 C   0  0  2  0  0  0  0  0  0  0  0  0
   21.1320   63.4920   34.5260 C   0  0  0  0  0  0  0  0  0  0  0  0
   23.3320   62.6730   34.1520 C   0  0  0  0  0  0  0  0  0  0  0  0
   23.5380   63.9880   33.7570 C   0  0  0  0  0  0  0  0  0  0  0  0
   24.6590   64.3320   32.9950 C   0  0  0  0  0  0  0  0  0  0  0  0
   24.7920   65.7250   32.5090 C   0  0  0  0  0  0  0  0  0  0  0  0
   25.5820   63.3310   32.7310 C   0  0  0  0  0  0  0  0  0  0  0  0
   25.4450   62.0470   33.1630 N   0  0  0  0  0  0  0  0  0  0  0  0
   24.3150   61.7510   33.8740 C   0  0  0  0  0  0  0  0  0  0  0  0
   26.7060   63.5530   31.9650 O   0  0  0  0  0  0  0  0  0  0  0  0
   26.4880   64.0810   31.1860 H   0  0  0  0  0  0  0  0  0  0  0  0
   19.4500   62.5140   35.8800 O   0  0  0  0  0  0  0  0  0  0  0  0
   18.6820   61.9060   35.8090 H   0  0  0  0  0  0  0  0  0  0  0  0
   19.4770   62.0470   32.2010 C   0  0  0  0  0  0  0  0  0  0  0  0
   18.6150   63.1790   32.1950 O   0  0  0  0  0  0  0  0  0  0  0  0
   17.0310   62.9150   31.7590 P   0  0  0  0  0  0  0  0  0  0  0  0
   16.9320   61.4130   31.5960 O   0  0  0  0  0  0  0  0  0  0  0  0
   16.9280   63.6380   30.4520 O   0  0  0  0  0  0  0  0  0  0  0  0
   16.2080   63.4410   32.8830 O   0  0  0  0  0  0  0  0  0  0  0  0
  1 15  1  1  0  0  0
  2 17  1  6  0  0  0
  2  1  1  0  0  0  0
  3  2  1  0  0  0  0
  3  4  1  0  0  0  0
  4  6  1  6  0  0  0
  5  1  1  0  0  0  0
  5  4  1  0  0  0  0
  7  6  1  0  0  0  0
  8  7  2  0  0  0  0
  9  8  1  0  0  0  0
 10  8  1  0  0  0  0
 10 11  2  0  0  0  0
 11 12  1  0  0  0  0
 12  6  2  0  0  0  0
 13 10  1  0  0  0  0
 14 13  1  0  0  0  0
 16 15  1  0  0  0  0
 18 17  1  0  0  0  0
 19 18  1  0  0  0  0
 19 22  1  0  0  0  0
 20 19  1  0  0  0  0
 21 19  2  0  0  0  0
M  END
>  <minimizedAffinity>
-7.33213615

$$$$

 OpenBabel12271915103D

 22 23  0  0  1  0  0  0  0  0999 V2000
   20.9000   61.4340   31.9290 C   0  0  2  0  0  0  0  0  0  0  0  0
   20.7130   61.5330   33.4330 C   0  0  2  0  0  0  0  0  0  0  0  0
   20.4020   62.9860   33.7510 O   0  0  0  0  0  0  0  0  0  0  0  0
   20.3270   63.6160   32.4430 C   0  0  2  0  0  0  0  0  0  0  0  0
   21.2300   62.8500   31.5580 C   0  0  0  0  0  0  0  0  0  0  0  0
   20.8170   65.0090   32.4610 C   0  0  0  0  0  0  0  0  0  0  0  0
   19.9100   66.0250   32.1840 C   0  0  0  0  0  0  0  0  0  0  0  0
   20.3590   67.2830   31.7740 C   0  0  0  0  0  0  0  0  0  0  0  0
   19.3600   68.3090   31.3930 C   0  0  0  0  0  0  0  0  0  0  0  0
   21.7310   67.4910   31.7390 C   0  0  0  0  0  0  0  0  0  0  0  0
   22.6450   66.5400   32.0700 N   0  0  0  0  0  0  0  0  0  0  0  0
   22.1580   65.3140   32.4310 C   0  0  0  0  0  0  0  0  0  0  0  0
   22.2810   68.6830   31.3200 O   0  0  0  0  0  0  0  0  0  0  0  0
   21.8290   69.0090   30.5310 H   0  0  0  0  0  0  0  0  0  0  0  0
   19.6650   61.0940   31.2700 O   0  0  0  0  0  0  0  0  0  0  0  0
   19.3310   60.2960   31.7350 H   0  0  0  0  0  0  0  0  0  0  0  0
   21.9710   61.1630   34.1740 C   0  0  0  0  0  0  0  0  0  0  0  0
   22.6800   62.3390   34.5490 O   0  0  0  0  0  0  0  0  0  0  0  0
   24.3230   62.3430   34.2810 P   0  0  0  0  0  0  0  0  0  0  0  0
   24.4580   62.2170   32.7790 O   0  0  0  0  0  0  0  0  0  0  0  0
   24.7730   61.1100   35.0000 O   0  0  0  0  0  0  0  0  0  0  0  0
   24.8150   63.6450   34.8090 O   0  0  0  0  0  0  0  0  0  0  0  0
  1 15  1  6  0  0  0
  1  2  1  0  0  0  0
  2  3  1  0  0  0  0
  2 17  1  1  0  0  0
  4  6  1  1  0  0  0
  4  3  1  0  0  0  0
  5  1  1  0  0  0  0
  5  4  1  0  0  0  0
  7  6  1  0  0  0  0
  8  7  2  0  0  0  0
  9  8  1  0  0  0  0
 10  8  1  0  0  0  0
 10 11  2  0  0  0  0
 11 12  1  0  0  0  0
 12  6  2  0  0  0  0
 13 10  1  0  0  0  0
 14 13  1  0  0  0  0
 15 16  1  0  0  0  0
 17 18  1  0  0  0  0
 19 18  1  0  0  0  0
 19 22  1  0  0  0  0
 19 21  1  0  0  0  0
 20 19  2  0  0  0  0
M  END
>  <minimizedAffinity>
-7.30459356

$$$$

 OpenBabel12271915103D

 22 23  0  0  1  0  0  0  0  0999 V2000
   22.6260   65.5920   31.8700 C   0  0  2  0  0  0  0  0  0  0  0  0
   21.6720   64.9070   32.8310 C   0  0  2  0  0  0  0  0  0  0  0  0
   22.5170   64.2340   33.8990 O   0  0  0  0  0  0  0  0  0  0  0  0
   23.8740   64.6380   33.5690 C   0  0  2  0  0  0  0  0  0  0  0  0
   23.9040   64.8410   32.1040 C   0  0  0  0  0  0  0  0  0  0  0  0
   24.8660   63.5880   33.8800 C   0  0  0  0  0  0  0  0  0  0  0  0
   25.8080   63.2700   32.9110 C   0  0  0  0  0  0  0  0  0  0  0  0
   26.4830   62.0470   32.9530 C   0  0  0  0  0  0  0  0  0  0  0  0
   27.4070   61.7020   31.8470 C   0  0  0  0  0  0  0  0  0  0  0  0
   26.2340   61.2170   34.0370 C   0  0  0  0  0  0  0  0  0  0  0  0
   25.3690   61.5290   35.0400 N   0  0  0  0  0  0  0  0  0  0  0  0
   24.7060   62.7210   34.9370 C   0  0  0  0  0  0  0  0  0  0  0  0
   26.8210   59.9770   34.1620 O   0  0  0  0  0  0  0  0  0  0  0  0
   26.8110   59.5090   33.3170 H   0  0  0  0  0  0  0  0  0  0  0  0
   22.8570   66.9630   32.2500 O   0  0  0  0  0  0  0  0  0  0  0  0
   21.9640   67.3580   32.3560 H   0  0  0  0  0  0  0  0  0  0  0  0
   20.8680   63.8340   32.1440 C   0  0  0  0  0  0  0  0  0  0  0  0
   20.8200   62.6650   32.9540 O   0  0  0  0  0  0  0  0  0  0  0  0
   19.3390   62.2540   33.5930 P   0  0  0  0  0  0  0  0  0  0  0  0
   18.3670   63.2030   32.9260 O   0  0  0  0  0  0  0  0  0  0  0  0
   19.5190   62.5530   35.0490 O   0  0  0  0  0  0  0  0  0  0  0  0
   19.1190   60.8290   33.2220 O   0  0  0  0  0  0  0  0  0  0  0  0
  1  5  1  0  0  0  0
  1 15  1  1  0  0  0
  1  2  1  0  0  0  0
  2 17  1  6  0  0  0
  2  3  1  0  0  0  0
  4  6  1  6  0  0  0
  4  3  1  0  0  0  0
  5  4  1  0  0  0  0
  6 12  2  0  0  0  0
  7  8  2  0  0  0  0
  7  6  1  0  0  0  0
  8 10  1  0  0  0  0
  9  8  1  0  0  0  0
 10 13  1  0  0  0  0
 10 11  2  0  0  0  0
 12 11  1  0  0  0  0
 14 13  1  0  0  0  0
 15 16  1  0  0  0  0
 17 18  1  0  0  0  0
 18 19  1  0  0  0  0
 19 21  1  0  0  0  0
 20 19  2  0  0  0  0
 22 19  1  0  0  0  0
M  END
>  <minimizedAffinity>
-7.28213835

$$$$

 OpenBabel12271915103D

 22 23  0  0  1  0  0  0  0  0999 V2000
   20.3150   64.1220   32.4320 C   0  0  2  0  0  0  0  0  0  0  0  0
   19.9380   63.6840   33.8350 C   0  0  2  0  0  0  0  0  0  0  0  0
   21.2210   63.6220   34.6460 O   0  0  0  0  0  0  0  0  0  0  0  0
   22.2340   64.1130   33.7250 C   0  0  2  0  0  0  0  0  0  0  0  0
   21.7700   63.7580   32.3660 C   0  0  0  0  0  0  0  0  0  0  0  0
   23.5410   63.4550   33.9220 C   0  0  0  0  0  0  0  0  0  0  0  0
   24.5490   63.7150   33.0020 C   0  0  0  0  0  0  0  0  0  0  0  0
   25.6330   62.8410   32.8730 C   0  0  0  0  0  0  0  0  0  0  0  0
   26.6360   63.1000   31.8140 C   0  0  0  0  0  0  0  0  0  0  0  0
   25.6950   61.7670   33.7490 C   0  0  0  0  0  0  0  0  0  0  0  0
   24.7590   61.5210   34.7060 N   0  0  0  0  0  0  0  0  0  0  0  0
   23.7000   62.3840   34.7720 C   0  0  0  0  0  0  0  0  0  0  0  0
   26.7020   60.8280   33.6880 O   0  0  0  0  0  0  0  0  0  0  0  0
   26.8820   60.5800   32.7720 H   0  0  0  0  0  0  0  0  0  0  0  0
   20.2230   65.5530   32.2880 O   0  0  0  0  0  0  0  0  0  0  0  0
   19.3250   65.7900   32.6080 H   0  0  0  0  0  0  0  0  0  0  0  0
   19.3300   62.3050   33.8410 C   0  0  0  0  0  0  0  0  0  0  0  0
   17.9160   62.3950   33.7100 O   0  0  0  0  0  0  0  0  0  0  0  0
   17.2290   61.5980   32.4200 P   0  0  0  0  0  0  0  0  0  0  0  0
   17.0080   62.6810   31.3860 O   0  0  0  0  0  0  0  0  0  0  0  0
   15.9450   61.0900   32.9970 O   0  0  0  0  0  0  0  0  0  0  0  0
   18.2260   60.5760   31.9980 O   0  0  0  0  0  0  0  0  0  0  0  0
  1 15  1  1  0  0  0
  1  2  1  0  0  0  0
  2 17  1  6  0  0  0
  2  3  1  0  0  0  0
  4  6  1  1  0  0  0
  4  3  1  0  0  0  0
  5  1  1  0  0  0  0
  5  4  1  0  0  0  0
  6 12  2  0  0  0  0
  7  6  1  0  0  0  0
  8  7  2  0  0  0  0
  8 10  1  0  0  0  0
  9  8  1  0  0  0  0
 10 11  2  0  0  0  0
 11 12  1  0  0  0  0
 13 10  1  0  0  0  0
 14 13  1  0  0  0  0
 15 16  1  0  0  0  0
 18 17  1  0  0  0  0
 19 21  1  0  0  0  0
 19 18  1  0  0  0  0
 20 19  2  0  0  0  0
 22 19  1  0  0  0  0
M  END
>  <minimizedAffinity>
-7.22962284

$$$$

 OpenBabel12271915103D

 22 23  0  0  1  0  0  0  0  0999 V2000
   23.8580   61.5440   34.9480 C   0  0  2  0  0  0  0  0  0  0  0  0
   22.8240   61.3760   33.8500 C   0  0  2  0  0  0  0  0  0  0  0  0
   23.0240   62.5170   32.8680 O   0  0  0  0  0  0  0  0  0  0  0  0
   24.1960   63.2100   33.3790 C   0  0  2  0  0  0  0  0  0  0  0  0
   24.1980   63.0020   34.8430 C   0  0  0  0  0  0  0  0  0  0  0  0
   24.1340   64.6680   33.1490 C   0  0  0  0  0  0  0  0  0  0  0  0
   22.9090   65.2230   32.8030 C   0  0  0  0  0  0  0  0  0  0  0  0
   22.8480   66.4700   32.1750 C   0  0  0  0  0  0  0  0  0  0  0  0
   21.5310   66.9840   31.7320 C   0  0  0  0  0  0  0  0  0  0  0  0
   24.0430   67.1520   31.9940 C   0  0  0  0  0  0  0  0  0  0  0  0
   25.2530   66.6670   32.3830 N   0  0  0  0  0  0  0  0  0  0  0  0
   25.2650   65.4280   32.9620 C   0  0  0  0  0  0  0  0  0  0  0  0
   24.1010   68.3730   31.3580 O   0  0  0  0  0  0  0  0  0  0  0  0
   23.5420   68.3750   30.5710 H   0  0  0  0  0  0  0  0  0  0  0  0
   25.0580   60.8000   34.6560 O   0  0  0  0  0  0  0  0  0  0  0  0
   24.7570   59.8870   34.4570 H   0  0  0  0  0  0  0  0  0  0  0  0
   21.4210   61.4790   34.3880 C   0  0  0  0  0  0  0  0  0  0  0  0
   20.5420   61.9520   33.3740 O   0  0  0  0  0  0  0  0  0  0  0  0
   19.3900   63.0600   33.8360 P   0  0  0  0  0  0  0  0  0  0  0  0
   19.7350   63.3840   35.2740 O   0  0  0  0  0  0  0  0  0  0  0  0
   18.1190   62.2780   33.7170 O   0  0  0  0  0  0  0  0  0  0  0  0
   19.5520   64.2200   32.9160 O   0  0  0  0  0  0  0  0  0  0  0  0
  1 15  1  6  0  0  0
  2 17  1  1  0  0  0
  2  1  1  0  0  0  0
  3  4  1  0  0  0  0
  3  2  1  0  0  0  0
  4  6  1  1  0  0  0
  4  5  1  0  0  0  0
  5  1  1  0  0  0  0
  7  6  1  0  0  0  0
  8  7  2  0  0  0  0
  9  8  1  0  0  0  0
 10  8  1  0  0  0  0
 10 11  2  0  0  0  0
 11 12  1  0  0  0  0
 12  6  2  0  0  0  0
 13 10  1  0  0  0  0
 14 13  1  0  0  0  0
 16 15  1  0  0  0  0
 18 19  1  0  0  0  0
 18 17  1  0  0  0  0
 19 20  1  0  0  0  0
 21 19  1  0  0  0  0
 22 19  2  0  0  0  0
M  END
>  <minimizedAffinity>
-6.92921209

$$$$

 OpenBabel12271915103D

 22 23  0  0  1  0  0  0  0  0999 V2000
   21.0480   60.7980   32.6720 C   0  0  2  0  0  0  0  0  0  0  0  0
   20.9440   61.5880   33.9640 C   0  0  2  0  0  0  0  0  0  0  0  0
   19.8440   62.6180   33.7710 O   0  0  0  0  0  0  0  0  0  0  0  0
   19.3140   62.3140   32.4520 C   0  0  2  0  0  0  0  0  0  0  0  0
   20.4330   61.7370   31.6760 C   0  0  0  0  0  0  0  0  0  0  0  0
   18.8660   63.5230   31.7320 C   0  0  0  0  0  0  0  0  0  0  0  0
   19.5990   64.6910   31.8970 C   0  0  0  0  0  0  0  0  0  0  0  0
   19.0260   65.9330   31.6090 C   0  0  0  0  0  0  0  0  0  0  0  0
   19.8060   67.1620   31.8920 C   0  0  0  0  0  0  0  0  0  0  0  0
   17.7440   65.9380   31.0790 C   0  0  0  0  0  0  0  0  0  0  0  0
   17.0240   64.8080   30.8410 N   0  0  0  0  0  0  0  0  0  0  0  0
   17.6130   63.6190   31.1710 C   0  0  0  0  0  0  0  0  0  0  0  0
   17.0750   67.1070   30.7890 O   0  0  0  0  0  0  0  0  0  0  0  0
   17.1930   67.7530   31.4970 H   0  0  0  0  0  0  0  0  0  0  0  0
   20.2250   59.6150   32.7140 O   0  0  0  0  0  0  0  0  0  0  0  0
   20.4730   59.1540   33.5440 H   0  0  0  0  0  0  0  0  0  0  0  0
   22.2190   62.3330   34.2630 C   0  0  0  0  0  0  0  0  0  0  0  0
   23.2880   61.4130   34.4500 O   0  0  0  0  0  0  0  0  0  0  0  0
   24.8290   61.9940   34.2050 P   0  0  0  0  0  0  0  0  0  0  0  0
   25.7310   60.8560   34.6310 O   0  0  0  0  0  0  0  0  0  0  0  0
   24.8930   63.1560   35.1460 O   0  0  0  0  0  0  0  0  0  0  0  0
   24.9180   62.3030   32.7510 O   0  0  0  0  0  0  0  0  0  0  0  0
  1 15  1  1  0  0  0
  1  2  1  0  0  0  0
  2 17  1  6  0  0  0
  3  2  1  0  0  0  0
  4  6  1  6  0  0  0
  4  3  1  0  0  0  0
  5  4  1  0  0  0  0
  5  1  1  0  0  0  0
  6  7  1  0  0  0  0
  8  9  1  0  0  0  0
  8  7  2  0  0  0  0
 10  8  1  0  0  0  0
 11 10  2  0  0  0  0
 11 12  1  0  0  0  0
 12  6  2  0  0  0  0
 13 10  1  0  0  0  0
 13 14  1  0  0  0  0
 15 16  1  0  0  0  0
 17 18  1  0  0  0  0
 19 18  1  0  0  0  0
 19 20  1  0  0  0  0
 19 21  1  0  0  0  0
 22 19  2  0  0  0  0
M  END
>  <minimizedAffinity>
-6.89506388

$$$$
