
 OpenBabel12271915193D

 32 35  0  0  1  0  0  0  0  0999 V2000
   16.3250   65.1980   31.4150 C   0  0  1  0  0  0  0  0  0  0  0  0
   14.9710   65.1910   30.8430 N   0  0  0  0  0  0  0  0  0  0  0  0
   14.4680   65.9870   31.2110 H   0  0  0  0  0  0  0  0  0  0  0  0
   14.4360   64.3340   31.0730 H   0  0  0  0  0  0  0  0  0  0  0  0
   15.0490   65.3210   29.8110 H   0  0  0  0  0  0  0  0  0  0  0  0
   17.2050   64.0800   30.8850 C   0  0  0  0  0  0  0  0  0  0  0  0
   17.6930   63.2040   31.9630 C   0  0  0  0  0  0  0  0  0  0  0  0
   18.9810   62.6850   32.0390 C   0  0  0  0  0  0  0  0  0  0  0  0
   20.1020   62.7940   31.2260 C   0  0  0  0  0  0  0  0  0  0  0  0
   21.2640   62.1140   31.6010 C   0  0  0  0  0  0  0  0  0  0  0  0
   21.3080   61.3470   32.7570 C   0  0  0  0  0  0  0  0  0  0  0  0
   20.1590   61.2510   33.5730 C   0  0  0  0  0  0  0  0  0  0  0  0
   19.0120   61.9360   33.1870 C   0  0  0  0  0  0  0  0  0  0  0  0
   17.7660   61.9890   33.8230 N   0  0  0  0  0  0  0  0  0  0  0  0
   17.4860   61.5280   34.6670 H   0  0  0  0  0  0  0  0  0  0  0  0
   16.9660   62.7900   33.0480 C   0  0  0  0  0  0  0  0  0  0  0  0
   17.0220   66.4830   30.9260 C   0  0  0  0  0  0  0  0  0  0  0  0
   18.2890   66.6990   31.6880 O   0  0  0  0  0  0  0  0  0  0  0  0
   19.4720   67.2250   31.7960 C   0  0  0  0  0  0  0  0  0  0  0  0
   20.3820   66.1820   31.9170 C   0  0  0  0  0  0  0  0  0  0  0  0
   21.7610   66.3890   32.0270 C   0  0  0  0  0  0  0  0  0  0  0  0
   22.1770   67.6800   32.0110 C   0  0  0  0  0  0  0  0  0  0  0  0
   21.3170   68.7400   31.9000 N   0  0  0  0  0  0  0  0  0  0  0  0
   19.9460   68.4830   31.8040 C   0  0  0  0  0  0  0  0  0  0  0  0
   22.6870   65.2580   32.1500 C   0  0  0  0  0  0  0  0  0  0  0  0
   23.7170   65.1750   32.9960 C   0  0  0  0  0  0  0  0  0  0  0  0
   24.6130   64.0200   33.0760 C   0  0  0  0  0  0  0  0  0  0  0  0
   25.6430   63.9010   32.1220 C   0  0  0  0  0  0  0  0  0  0  0  0
   26.4910   62.8400   32.1710 C   0  0  0  0  0  0  0  0  0  0  0  0
   26.3680   61.8960   33.1150 N   0  0  0  0  0  0  0  0  0  0  0  0
   25.3770   62.0060   34.0330 C   0  0  0  0  0  0  0  0  0  0  0  0
   24.5040   63.0270   34.0440 C   0  0  0  0  0  0  0  0  0  0  0  0
  1  6  1  6  0  0  0
  2  4  1  0  0  0  0
  2  3  1  0  0  0  0
  2  1  1  0  0  0  0
  5  2  1  0  0  0  0
  6  7  1  0  0  0  0
  7  8  1  0  0  0  0
  7 16  2  0  0  0  0
  8 13  2  0  0  0  0
  9 10  2  0  0  0  0
  9  8  1  0  0  0  0
 10 11  1  0  0  0  0
 11 12  2  0  0  0  0
 13 12  1  0  0  0  0
 13 14  1  0  0  0  0
 14 15  1  0  0  0  0
 16 14  1  0  0  0  0
 17  1  1  0  0  0  0
 17 18  1  0  0  0  0
 18 19  1  0  0  0  0
 19 24  2  0  0  0  0
 19 20  1  0  0  0  0
 20 21  2  0  0  0  0
 21 25  1  0  0  0  0
 22 21  1  0  0  0  0
 23 22  2  0  0  0  0
 24 23  1  0  0  0  0
 25 26  2  0  0  0  0
 26 27  1  0  0  0  0
 27 32  2  0  0  0  0
 28 29  2  0  0  0  0
 28 27  1  0  0  0  0
 29 30  1  0  0  0  0
 30 31  2  0  0  0  0
 31 32  1  0  0  0  0
M  END
>  <minimizedAffinity>
-8.4380846

$$$$

 OpenBabel12271915193D

 32 35  0  0  1  0  0  0  0  0999 V2000
   17.5860   66.2300   31.2270 C   0  0  1  0  0  0  0  0  0  0  0  0
   16.6250   66.8280   32.1640 N   0  0  0  0  0  0  0  0  0  0  0  0
   15.7700   67.0220   31.6600 H   0  0  0  0  0  0  0  0  0  0  0  0
   16.9620   67.7130   32.5860 H   0  0  0  0  0  0  0  0  0  0  0  0
   16.4000   66.1220   32.8990 H   0  0  0  0  0  0  0  0  0  0  0  0
   18.8950   65.8310   31.8850 C   0  0  0  0  0  0  0  0  0  0  0  0
   19.9000   66.9060   31.8110 C   0  0  0  0  0  0  0  0  0  0  0  0
   21.2740   66.7110   31.8940 C   0  0  0  0  0  0  0  0  0  0  0  0
   22.0680   65.5840   32.0610 C   0  0  0  0  0  0  0  0  0  0  0  0
   23.4560   65.7510   32.1150 C   0  0  0  0  0  0  0  0  0  0  0  0
   24.0340   67.0070   32.0060 C   0  0  0  0  0  0  0  0  0  0  0  0
   23.2100   68.1410   31.8330 C   0  0  0  0  0  0  0  0  0  0  0  0
   21.8320   67.9580   31.7770 C   0  0  0  0  0  0  0  0  0  0  0  0
   20.8250   68.9170   31.6190 N   0  0  0  0  0  0  0  0  0  0  0  0
   20.9290   69.9090   31.5280 H   0  0  0  0  0  0  0  0  0  0  0  0
   19.6330   68.2380   31.6350 C   0  0  0  0  0  0  0  0  0  0  0  0
   16.9880   64.8920   30.7480 C   0  0  0  0  0  0  0  0  0  0  0  0
   17.3940   63.7910   31.6730 O   0  0  0  0  0  0  0  0  0  0  0  0
   17.6050   62.5320   31.9130 C   0  0  0  0  0  0  0  0  0  0  0  0
   18.9360   62.3970   32.2890 C   0  0  0  0  0  0  0  0  0  0  0  0
   19.5000   61.1670   32.6470 C   0  0  0  0  0  0  0  0  0  0  0  0
   18.6730   60.0940   32.6090 C   0  0  0  0  0  0  0  0  0  0  0  0
   17.3570   60.1770   32.2400 N   0  0  0  0  0  0  0  0  0  0  0  0
   16.8410   61.4260   31.8790 C   0  0  0  0  0  0  0  0  0  0  0  0
   20.9110   61.0710   33.0400 C   0  0  0  0  0  0  0  0  0  0  0  0
   21.7020   62.0910   33.3810 C   0  0  0  0  0  0  0  0  0  0  0  0
   23.1070   61.9370   33.7640 C   0  0  0  0  0  0  0  0  0  0  0  0
   23.4130   61.1760   34.9080 C   0  0  0  0  0  0  0  0  0  0  0  0
   24.7090   61.0150   35.2870 C   0  0  0  0  0  0  0  0  0  0  0  0
   25.7100   61.5700   34.5890 N   0  0  0  0  0  0  0  0  0  0  0  0
   25.4190   62.3050   33.4890 C   0  0  0  0  0  0  0  0  0  0  0  0
   24.1630   62.5050   33.0570 C   0  0  0  0  0  0  0  0  0  0  0  0
  1 17  1  1  0  0  0
  1  6  1  0  0  0  0
  1  2  1  0  0  0  0
  2  4  1  0  0  0  0
  2  5  1  0  0  0  0
  3  2  1  0  0  0  0
  7  6  1  0  0  0  0
  7  8  1  0  0  0  0
  8  9  2  0  0  0  0
  9 10  1  0  0  0  0
 11 10  2  0  0  0  0
 12 11  1  0  0  0  0
 13 12  2  0  0  0  0
 13  8  1  0  0  0  0
 14 16  1  0  0  0  0
 14 13  1  0  0  0  0
 15 14  1  0  0  0  0
 16  7  2  0  0  0  0
 17 18  1  0  0  0  0
 18 19  1  0  0  0  0
 19 20  1  0  0  0  0
 20 21  2  0  0  0  0
 21 25  1  0  0  0  0
 22 21  1  0  0  0  0
 23 22  2  0  0  0  0
 24 19  2  0  0  0  0
 24 23  1  0  0  0  0
 25 26  2  0  0  0  0
 26 27  1  0  0  0  0
 27 28  2  0  0  0  0
 28 29  1  0  0  0  0
 30 29  2  0  0  0  0
 31 30  1  0  0  0  0
 32 31  2  0  0  0  0
 32 27  1  0  0  0  0
M  END
>  <minimizedAffinity>
-8.06947517

$$$$

 OpenBabel12271915193D

 32 35  0  0  1  0  0  0  0  0999 V2000
   15.9690   63.1220   31.6470 C   0  0  1  0  0  0  0  0  0  0  0  0
   16.9580   62.9840   30.5680 N   0  0  0  0  0  0  0  0  0  0  0  0
   16.5920   63.4420   29.7440 H   0  0  0  0  0  0  0  0  0  0  0  0
   17.1630   61.9970   30.3280 H   0  0  0  0  0  0  0  0  0  0  0  0
   17.8250   63.4920   30.8500 H   0  0  0  0  0  0  0  0  0  0  0  0
   16.4340   62.5270   32.9650 C   0  0  0  0  0  0  0  0  0  0  0  0
   17.6430   61.7010   32.8010 C   0  0  0  0  0  0  0  0  0  0  0  0
   18.8590   61.9460   33.4310 C   0  0  0  0  0  0  0  0  0  0  0  0
   19.2970   62.9290   34.3080 C   0  0  0  0  0  0  0  0  0  0  0  0
   20.6230   62.8830   34.7500 C   0  0  0  0  0  0  0  0  0  0  0  0
   21.4870   61.8830   34.3280 C   0  0  0  0  0  0  0  0  0  0  0  0
   21.0230   60.8890   33.4380 C   0  0  0  0  0  0  0  0  0  0  0  0
   19.7000   60.9470   33.0100 C   0  0  0  0  0  0  0  0  0  0  0  0
   19.0220   60.0890   32.1370 N   0  0  0  0  0  0  0  0  0  0  0  0
   19.3830   59.2860   31.6600 H   0  0  0  0  0  0  0  0  0  0  0  0
   17.7420   60.5730   32.0300 C   0  0  0  0  0  0  0  0  0  0  0  0
   15.8280   64.6270   31.9490 C   0  0  0  0  0  0  0  0  0  0  0  0
   17.0070   65.3690   31.4110 O   0  0  0  0  0  0  0  0  0  0  0  0
   18.0050   66.1850   31.5740 C   0  0  0  0  0  0  0  0  0  0  0  0
   19.1460   65.4140   31.7630 C   0  0  0  0  0  0  0  0  0  0  0  0
   20.4160   65.9740   31.9450 C   0  0  0  0  0  0  0  0  0  0  0  0
   20.4830   67.3280   31.9290 C   0  0  0  0  0  0  0  0  0  0  0  0
   19.3860   68.1280   31.7510 N   0  0  0  0  0  0  0  0  0  0  0  0
   18.1360   67.5230   31.5850 C   0  0  0  0  0  0  0  0  0  0  0  0
   21.5940   65.1220   32.1390 C   0  0  0  0  0  0  0  0  0  0  0  0
   22.7980   65.5290   32.5520 C   0  0  0  0  0  0  0  0  0  0  0  0
   23.9430   64.6340   32.7260 C   0  0  0  0  0  0  0  0  0  0  0  0
   24.1280   64.0130   33.9770 C   0  0  0  0  0  0  0  0  0  0  0  0
   25.1820   63.1760   34.1680 C   0  0  0  0  0  0  0  0  0  0  0  0
   26.0570   62.9270   33.1840 N   0  0  0  0  0  0  0  0  0  0  0  0
   25.8840   63.5230   31.9790 C   0  0  0  0  0  0  0  0  0  0  0  0
   24.8660   64.3600   31.7210 C   0  0  0  0  0  0  0  0  0  0  0  0
  1 17  1  1  0  0  0
  1  6  1  0  0  0  0
  2  5  1  0  0  0  0
  2  1  1  0  0  0  0
  3  2  1  0  0  0  0
  4  2  1  0  0  0  0
  7  6  1  0  0  0  0
  7  8  1  0  0  0  0
  8  9  1  0  0  0  0
  9 10  2  0  0  0  0
 11 10  1  0  0  0  0
 12 11  2  0  0  0  0
 13  8  2  0  0  0  0
 13 12  1  0  0  0  0
 14 13  1  0  0  0  0
 15 14  1  0  0  0  0
 16 14  1  0  0  0  0
 16  7  2  0  0  0  0
 18 19  1  0  0  0  0
 18 17  1  0  0  0  0
 19 24  2  0  0  0  0
 19 20  1  0  0  0  0
 20 21  2  0  0  0  0
 21 25  1  0  0  0  0
 22 21  1  0  0  0  0
 23 22  2  0  0  0  0
 24 23  1  0  0  0  0
 25 26  2  0  0  0  0
 26 27  1  0  0  0  0
 27 28  2  0  0  0  0
 28 29  1  0  0  0  0
 30 29  2  0  0  0  0
 31 30  1  0  0  0  0
 32 31  2  0  0  0  0
 32 27  1  0  0  0  0
M  END
>  <minimizedAffinity>
-7.96081686

$$$$

 OpenBabel12271915193D

 32 35  0  0  1  0  0  0  0  0999 V2000
   23.4560   65.8900   32.0860 C   0  0  1  0  0  0  0  0  0  0  0  0
   23.1130   67.3080   31.9130 N   0  0  0  0  0  0  0  0  0  0  0  0
   22.3910   67.3750   31.2070 H   0  0  0  0  0  0  0  0  0  0  0  0
   23.9170   67.8890   31.6120 H   0  0  0  0  0  0  0  0  0  0  0  0
   22.7070   67.6600   32.8080 H   0  0  0  0  0  0  0  0  0  0  0  0
   24.4890   65.6520   33.1740 C   0  0  0  0  0  0  0  0  0  0  0  0
   25.2360   64.4000   32.9610 C   0  0  0  0  0  0  0  0  0  0  0  0
   25.1910   63.2990   33.8090 C   0  0  0  0  0  0  0  0  0  0  0  0
   24.5200   63.0360   34.9960 C   0  0  0  0  0  0  0  0  0  0  0  0
   24.7150   61.7950   35.6090 C   0  0  0  0  0  0  0  0  0  0  0  0
   25.5550   60.8410   35.0530 C   0  0  0  0  0  0  0  0  0  0  0  0
   26.2260   61.1250   33.8420 C   0  0  0  0  0  0  0  0  0  0  0  0
   26.0190   62.3630   33.2430 C   0  0  0  0  0  0  0  0  0  0  0  0
   26.5690   62.8670   32.0590 N   0  0  0  0  0  0  0  0  0  0  0  0
   27.2200   62.4200   31.4430 H   0  0  0  0  0  0  0  0  0  0  0  0
   26.0610   64.1320   31.9000 C   0  0  0  0  0  0  0  0  0  0  0  0
   22.1950   65.1740   32.6090 C   0  0  0  0  0  0  0  0  0  0  0  0
   20.9840   65.6910   31.9040 O   0  0  0  0  0  0  0  0  0  0  0  0
   19.6950   65.8320   31.8180 C   0  0  0  0  0  0  0  0  0  0  0  0
   19.4050   67.1680   32.0670 C   0  0  0  0  0  0  0  0  0  0  0  0
   18.1040   67.6800   32.0300 C   0  0  0  0  0  0  0  0  0  0  0  0
   17.1190   66.7960   31.7330 C   0  0  0  0  0  0  0  0  0  0  0  0
   17.3560   65.4690   31.4850 N   0  0  0  0  0  0  0  0  0  0  0  0
   18.6730   65.0020   31.5460 C   0  0  0  0  0  0  0  0  0  0  0  0
   17.8430   69.0980   32.2980 C   0  0  0  0  0  0  0  0  0  0  0  0
   18.7640   70.0300   32.5610 C   0  0  0  0  0  0  0  0  0  0  0  0
   18.4470   71.4350   32.8240 C   0  0  0  0  0  0  0  0  0  0  0  0
   19.0880   72.4240   32.0540 C   0  0  0  0  0  0  0  0  0  0  0  0
   18.8140   73.7380   32.2750 C   0  0  0  0  0  0  0  0  0  0  0  0
   17.9380   74.1140   33.2180 N   0  0  0  0  0  0  0  0  0  0  0  0
   17.3200   73.1650   33.9610 C   0  0  0  0  0  0  0  0  0  0  0  0
   17.5440   71.8500   33.7970 C   0  0  0  0  0  0  0  0  0  0  0  0
  1 17  1  1  0  0  0
  1  6  1  0  0  0  0
  2  1  1  0  0  0  0
  2  5  1  0  0  0  0
  3  2  1  0  0  0  0
  4  2  1  0  0  0  0
  7  6  1  0  0  0  0
  7  8  1  0  0  0  0
  8  9  1  0  0  0  0
  9 10  2  0  0  0  0
 11 10  1  0  0  0  0
 12 11  2  0  0  0  0
 13  8  2  0  0  0  0
 13 12  1  0  0  0  0
 14 13  1  0  0  0  0
 15 14  1  0  0  0  0
 16 14  1  0  0  0  0
 16  7  2  0  0  0  0
 18 17  1  0  0  0  0
 19 18  1  0  0  0  0
 19 20  2  0  0  0  0
 21 20  1  0  0  0  0
 21 25  1  0  0  0  0
 22 21  2  0  0  0  0
 23 24  2  0  0  0  0
 23 22  1  0  0  0  0
 24 19  1  0  0  0  0
 25 26  2  0  0  0  0
 26 27  1  0  0  0  0
 27 32  2  0  0  0  0
 28 29  2  0  0  0  0
 28 27  1  0  0  0  0
 29 30  1  0  0  0  0
 30 31  2  0  0  0  0
 32 31  1  0  0  0  0
M  END
>  <minimizedAffinity>
-7.95860672

$$$$

 OpenBabel12271915193D

 32 35  0  0  1  0  0  0  0  0999 V2000
   21.4010   61.4740   33.8760 C   0  0  1  0  0  0  0  0  0  0  0  0
   20.8250   62.6040   34.6170 N   0  0  0  0  0  0  0  0  0  0  0  0
   21.1820   62.5770   35.5640 H   0  0  0  0  0  0  0  0  0  0  0  0
   19.7900   62.5800   34.6590 H   0  0  0  0  0  0  0  0  0  0  0  0
   21.1640   63.4900   34.1820 H   0  0  0  0  0  0  0  0  0  0  0  0
   20.9890   61.4450   32.4150 C   0  0  0  0  0  0  0  0  0  0  0  0
   19.5250   61.4230   32.2540 C   0  0  0  0  0  0  0  0  0  0  0  0
   18.7490   62.5280   31.9220 C   0  0  0  0  0  0  0  0  0  0  0  0
   19.0470   63.8600   31.6680 C   0  0  0  0  0  0  0  0  0  0  0  0
   17.9960   64.7320   31.3660 C   0  0  0  0  0  0  0  0  0  0  0  0
   16.6830   64.2850   31.3200 C   0  0  0  0  0  0  0  0  0  0  0  0
   16.3990   62.9260   31.5770 C   0  0  0  0  0  0  0  0  0  0  0  0
   17.4570   62.0710   31.8720 C   0  0  0  0  0  0  0  0  0  0  0  0
   17.4240   60.7030   32.1630 N   0  0  0  0  0  0  0  0  0  0  0  0
   16.6230   60.1050   32.2190 H   0  0  0  0  0  0  0  0  0  0  0  0
   18.7230   60.3200   32.3890 C   0  0  0  0  0  0  0  0  0  0  0  0
   22.9270   61.6880   33.8270 C   0  0  0  0  0  0  0  0  0  0  0  0
   23.2520   62.8540   32.9510 O   0  0  0  0  0  0  0  0  0  0  0  0
   23.8630   63.9820   32.7450 C   0  0  0  0  0  0  0  0  0  0  0  0
   22.9000   64.9200   32.3930 C   0  0  0  0  0  0  0  0  0  0  0  0
   23.2100   66.2570   32.1240 C   0  0  0  0  0  0  0  0  0  0  0  0
   24.5170   66.6030   32.2240 C   0  0  0  0  0  0  0  0  0  0  0  0
   25.5010   65.7130   32.5620 N   0  0  0  0  0  0  0  0  0  0  0  0
   25.1450   64.3840   32.8100 C   0  0  0  0  0  0  0  0  0  0  0  0
   22.1600   67.2150   31.7580 C   0  0  0  0  0  0  0  0  0  0  0  0
   20.8450   67.0370   31.9150 C   0  0  0  0  0  0  0  0  0  0  0  0
   19.8390   68.0280   31.5290 C   0  0  0  0  0  0  0  0  0  0  0  0
   19.5170   69.0500   32.4420 C   0  0  0  0  0  0  0  0  0  0  0  0
   18.5870   69.9850   32.1110 C   0  0  0  0  0  0  0  0  0  0  0  0
   17.9650   69.9550   30.9240 N   0  0  0  0  0  0  0  0  0  0  0  0
   18.2710   68.9720   30.0440 C   0  0  0  0  0  0  0  0  0  0  0  0
   19.1790   68.0170   30.3040 C   0  0  0  0  0  0  0  0  0  0  0  0
  1  6  1  6  0  0  0
  1  2  1  0  0  0  0
  2  4  1  0  0  0  0
  2  3  1  0  0  0  0
  5  2  1  0  0  0  0
  7 16  2  0  0  0  0
  7  6  1  0  0  0  0
  8  7  1  0  0  0  0
  9  8  2  0  0  0  0
 10  9  1  0  0  0  0
 11 10  2  0  0  0  0
 11 12  1  0  0  0  0
 12 13  2  0  0  0  0
 13  8  1  0  0  0  0
 13 14  1  0  0  0  0
 14 15  1  0  0  0  0
 14 16  1  0  0  0  0
 17  1  1  0  0  0  0
 18 17  1  0  0  0  0
 19 24  1  0  0  0  0
 19 18  1  0  0  0  0
 20 19  2  0  0  0  0
 21 22  2  0  0  0  0
 21 20  1  0  0  0  0
 22 23  1  0  0  0  0
 23 24  2  0  0  0  0
 25 26  2  0  0  0  0
 25 21  1  0  0  0  0
 27 26  1  0  0  0  0
 27 28  2  0  0  0  0
 29 28  1  0  0  0  0
 30 29  2  0  0  0  0
 31 32  2  0  0  0  0
 31 30  1  0  0  0  0
 32 27  1  0  0  0  0
M  END
>  <minimizedAffinity>
-7.85835314

$$$$

 OpenBabel12271915193D

 32 35  0  0  1  0  0  0  0  0999 V2000
   20.3420   61.8480   33.1100 C   0  0  1  0  0  0  0  0  0  0  0  0
   20.7750   60.4430   33.1230 N   0  0  0  0  0  0  0  0  0  0  0  0
   20.2060   59.9310   32.4610 H   0  0  0  0  0  0  0  0  0  0  0  0
   20.6770   59.9950   34.0520 H   0  0  0  0  0  0  0  0  0  0  0  0
   21.7610   60.4000   32.7840 H   0  0  0  0  0  0  0  0  0  0  0  0
   21.1710   62.7370   34.0200 C   0  0  0  0  0  0  0  0  0  0  0  0
   22.5850   62.3260   34.0560 C   0  0  0  0  0  0  0  0  0  0  0  0
   23.6080   62.9470   33.3480 C   0  0  0  0  0  0  0  0  0  0  0  0
   23.6430   64.0240   32.4720 C   0  0  0  0  0  0  0  0  0  0  0  0
   24.8730   64.3870   31.9150 C   0  0  0  0  0  0  0  0  0  0  0  0
   26.0350   63.6950   32.2230 C   0  0  0  0  0  0  0  0  0  0  0  0
   25.9810   62.6050   33.1200 C   0  0  0  0  0  0  0  0  0  0  0  0
   24.7500   62.2580   33.6680 C   0  0  0  0  0  0  0  0  0  0  0  0
   24.4490   61.2270   34.5650 N   0  0  0  0  0  0  0  0  0  0  0  0
   25.0740   60.5510   34.9580 H   0  0  0  0  0  0  0  0  0  0  0  0
   23.0980   61.2940   34.7980 C   0  0  0  0  0  0  0  0  0  0  0  0
   20.6200   62.4010   31.6980 C   0  0  0  0  0  0  0  0  0  0  0  0
   19.8080   63.6330   31.4630 O   0  0  0  0  0  0  0  0  0  0  0  0
   18.6600   64.2330   31.3640 C   0  0  0  0  0  0  0  0  0  0  0  0
   18.8830   65.5920   31.5490 C   0  0  0  0  0  0  0  0  0  0  0  0
   17.8590   66.5430   31.4810 C   0  0  0  0  0  0  0  0  0  0  0  0
   16.6160   66.0690   31.2200 C   0  0  0  0  0  0  0  0  0  0  0  0
   16.3470   64.7380   31.0350 N   0  0  0  0  0  0  0  0  0  0  0  0
   17.4020   63.8240   31.1250 C   0  0  0  0  0  0  0  0  0  0  0  0
   18.1400   67.9690   31.6800 C   0  0  0  0  0  0  0  0  0  0  0  0
   17.6980   68.7220   32.6910 C   0  0  0  0  0  0  0  0  0  0  0  0
   18.0070   70.1450   32.8410 C   0  0  0  0  0  0  0  0  0  0  0  0
   17.3400   70.8770   33.8420 C   0  0  0  0  0  0  0  0  0  0  0  0
   17.6070   72.2000   34.0060 C   0  0  0  0  0  0  0  0  0  0  0  0
   18.5000   72.8280   33.2280 N   0  0  0  0  0  0  0  0  0  0  0  0
   19.1430   72.1280   32.2630 C   0  0  0  0  0  0  0  0  0  0  0  0
   18.9280   70.8200   32.0460 C   0  0  0  0  0  0  0  0  0  0  0  0
  1 17  1  6  0  0  0
  1  2  1  0  0  0  0
  1  6  1  0  0  0  0
  2  4  1  0  0  0  0
  3  2  1  0  0  0  0
  5  2  1  0  0  0  0
  6  7  1  0  0  0  0
  7 16  2  0  0  0  0
  8 13  1  0  0  0  0
  8  7  1  0  0  0  0
  9  8  2  0  0  0  0
 10 11  2  0  0  0  0
 10  9  1  0  0  0  0
 11 12  1  0  0  0  0
 12 13  2  0  0  0  0
 13 14  1  0  0  0  0
 14 16  1  0  0  0  0
 14 15  1  0  0  0  0
 18 17  1  0  0  0  0
 19 18  1  0  0  0  0
 19 20  2  0  0  0  0
 21 20  1  0  0  0  0
 21 25  1  0  0  0  0
 22 21  2  0  0  0  0
 23 24  2  0  0  0  0
 23 22  1  0  0  0  0
 24 19  1  0  0  0  0
 25 26  2  0  0  0  0
 26 27  1  0  0  0  0
 27 28  2  0  0  0  0
 28 29  1  0  0  0  0
 30 29  2  0  0  0  0
 31 30  1  0  0  0  0
 32 31  2  0  0  0  0
 32 27  1  0  0  0  0
M  END
>  <minimizedAffinity>
-7.78393126

$$$$

 OpenBabel12271915193D

 32 35  0  0  1  0  0  0  0  0999 V2000
   21.6280   61.6380   34.1620 C   0  0  1  0  0  0  0  0  0  0  0  0
   22.6730   60.8460   34.8260 N   0  0  0  0  0  0  0  0  0  0  0  0
   22.5870   59.8870   34.5150 H   0  0  0  0  0  0  0  0  0  0  0  0
   22.6020   60.8610   35.8590 H   0  0  0  0  0  0  0  0  0  0  0  0
   23.6030   61.1950   34.5060 H   0  0  0  0  0  0  0  0  0  0  0  0
   21.6940   63.1170   34.4990 C   0  0  0  0  0  0  0  0  0  0  0  0
   22.9810   63.7170   34.1020 C   0  0  0  0  0  0  0  0  0  0  0  0
   23.1150   64.8060   33.2490 C   0  0  0  0  0  0  0  0  0  0  0  0
   22.2040   65.5960   32.5600 C   0  0  0  0  0  0  0  0  0  0  0  0
   22.6950   66.6320   31.7580 C   0  0  0  0  0  0  0  0  0  0  0  0
   24.0570   66.8720   31.6470 C   0  0  0  0  0  0  0  0  0  0  0  0
   24.9680   66.0600   32.3580 C   0  0  0  0  0  0  0  0  0  0  0  0
   24.4640   65.0370   33.1540 C   0  0  0  0  0  0  0  0  0  0  0  0
   25.1620   64.1110   33.9380 N   0  0  0  0  0  0  0  0  0  0  0  0
   26.1530   64.0230   34.0500 H   0  0  0  0  0  0  0  0  0  0  0  0
   24.2180   63.3060   34.5250 C   0  0  0  0  0  0  0  0  0  0  0  0
   21.9080   61.5900   32.6470 C   0  0  0  0  0  0  0  0  0  0  0  0
   20.6300   61.7290   31.8860 O   0  0  0  0  0  0  0  0  0  0  0  0
   19.3620   62.0100   31.8400 C   0  0  0  0  0  0  0  0  0  0  0  0
   19.2460   63.3860   31.6840 C   0  0  0  0  0  0  0  0  0  0  0  0
   18.0110   64.0330   31.5720 C   0  0  0  0  0  0  0  0  0  0  0  0
   16.9120   63.2410   31.6220 C   0  0  0  0  0  0  0  0  0  0  0  0
   16.9760   61.8820   31.7790 N   0  0  0  0  0  0  0  0  0  0  0  0
   18.2340   61.2810   31.9000 C   0  0  0  0  0  0  0  0  0  0  0  0
   17.9340   65.4890   31.4060 C   0  0  0  0  0  0  0  0  0  0  0  0
   18.8900   66.3660   31.7230 C   0  0  0  0  0  0  0  0  0  0  0  0
   18.7600   67.8130   31.5390 C   0  0  0  0  0  0  0  0  0  0  0  0
   18.1100   68.2880   30.3840 C   0  0  0  0  0  0  0  0  0  0  0  0
   17.9730   69.6260   30.1860 C   0  0  0  0  0  0  0  0  0  0  0  0
   18.4470   70.5110   31.0750 N   0  0  0  0  0  0  0  0  0  0  0  0
   19.0740   70.0570   32.1870 C   0  0  0  0  0  0  0  0  0  0  0  0
   19.2440   68.7500   32.4460 C   0  0  0  0  0  0  0  0  0  0  0  0
  1 17  1  6  0  0  0
  1  6  1  0  0  0  0
  1  2  1  0  0  0  0
  2  4  1  0  0  0  0
  3  2  1  0  0  0  0
  5  2  1  0  0  0  0
  7  6  1  0  0  0  0
  7 16  2  0  0  0  0
  8  7  1  0  0  0  0
  9  8  2  0  0  0  0
 10  9  1  0  0  0  0
 11 10  2  0  0  0  0
 11 12  1  0  0  0  0
 12 13  2  0  0  0  0
 13  8  1  0  0  0  0
 13 14  1  0  0  0  0
 14 15  1  0  0  0  0
 14 16  1  0  0  0  0
 18 17  1  0  0  0  0
 19 18  1  0  0  0  0
 19 24  1  0  0  0  0
 20 19  2  0  0  0  0
 21 22  2  0  0  0  0
 21 20  1  0  0  0  0
 22 23  1  0  0  0  0
 23 24  2  0  0  0  0
 25 21  1  0  0  0  0
 25 26  2  0  0  0  0
 27 26  1  0  0  0  0
 27 32  2  0  0  0  0
 28 27  1  0  0  0  0
 29 28  2  0  0  0  0
 29 30  1  0  0  0  0
 30 31  2  0  0  0  0
 31 32  1  0  0  0  0
M  END
>  <minimizedAffinity>
-7.76079035

$$$$

 OpenBabel12271915193D

 32 35  0  0  1  0  0  0  0  0999 V2000
   23.3650   62.5580   34.5150 C   0  0  1  0  0  0  0  0  0  0  0  0
   24.5850   62.3700   35.3130 N   0  0  0  0  0  0  0  0  0  0  0  0
   24.3110   62.1740   36.2670 H   0  0  0  0  0  0  0  0  0  0  0  0
   25.2030   63.2020   35.3160 H   0  0  0  0  0  0  0  0  0  0  0  0
   25.0860   61.5280   34.9540 H   0  0  0  0  0  0  0  0  0  0  0  0
   23.6450   62.7950   33.0420 C   0  0  0  0  0  0  0  0  0  0  0  0
   23.9880   64.2010   32.7640 C   0  0  0  0  0  0  0  0  0  0  0  0
   23.0650   65.1920   32.4450 C   0  0  0  0  0  0  0  0  0  0  0  0
   21.6860   65.1950   32.2900 C   0  0  0  0  0  0  0  0  0  0  0  0
   21.0580   66.3960   31.9450 C   0  0  0  0  0  0  0  0  0  0  0  0
   21.7880   67.5620   31.7590 C   0  0  0  0  0  0  0  0  0  0  0  0
   23.1900   67.5400   31.9250 C   0  0  0  0  0  0  0  0  0  0  0  0
   23.7990   66.3380   32.2720 C   0  0  0  0  0  0  0  0  0  0  0  0
   25.1560   66.0710   32.4840 N   0  0  0  0  0  0  0  0  0  0  0  0
   25.9270   66.7060   32.4100 H   0  0  0  0  0  0  0  0  0  0  0  0
   25.2480   64.7380   32.7970 C   0  0  0  0  0  0  0  0  0  0  0  0
   22.5930   61.2250   34.5360 C   0  0  0  0  0  0  0  0  0  0  0  0
   21.5990   61.1920   33.4210 O   0  0  0  0  0  0  0  0  0  0  0  0
   20.3800   61.0600   32.9920 C   0  0  0  0  0  0  0  0  0  0  0  0
   19.9200   62.3250   32.6480 C   0  0  0  0  0  0  0  0  0  0  0  0
   18.6430   62.5480   32.1210 C   0  0  0  0  0  0  0  0  0  0  0  0
   17.8610   61.4530   31.9570 C   0  0  0  0  0  0  0  0  0  0  0  0
   18.2690   60.1870   32.2860 N   0  0  0  0  0  0  0  0  0  0  0  0
   19.5500   60.0150   32.8220 C   0  0  0  0  0  0  0  0  0  0  0  0
   18.1980   63.9010   31.7690 C   0  0  0  0  0  0  0  0  0  0  0  0
   17.0970   64.2120   31.0800 C   0  0  0  0  0  0  0  0  0  0  0  0
   16.7010   65.5830   30.7540 C   0  0  0  0  0  0  0  0  0  0  0  0
   17.6900   66.5850   30.7490 C   0  0  0  0  0  0  0  0  0  0  0  0
   17.3530   67.8680   30.4490 C   0  0  0  0  0  0  0  0  0  0  0  0
   16.0880   68.2010   30.1550 N   0  0  0  0  0  0  0  0  0  0  0  0
   15.1330   67.2400   30.1610 C   0  0  0  0  0  0  0  0  0  0  0  0
   15.3960   65.9540   30.4480 C   0  0  0  0  0  0  0  0  0  0  0  0
  1  6  1  6  0  0  0
  1 17  1  0  0  0  0
  1  2  1  0  0  0  0
  2  4  1  0  0  0  0
  2  3  1  0  0  0  0
  5  2  1  0  0  0  0
  7 16  2  0  0  0  0
  7  6  1  0  0  0  0
  8  7  1  0  0  0  0
  9  8  1  0  0  0  0
 10  9  2  0  0  0  0
 11 12  2  0  0  0  0
 11 10  1  0  0  0  0
 12 13  1  0  0  0  0
 13  8  2  0  0  0  0
 13 14  1  0  0  0  0
 14 16  1  0  0  0  0
 15 14  1  0  0  0  0
 18 17  1  0  0  0  0
 19 18  1  0  0  0  0
 20 19  2  0  0  0  0
 21 20  1  0  0  0  0
 22 21  2  0  0  0  0
 22 23  1  0  0  0  0
 23 24  2  0  0  0  0
 24 19  1  0  0  0  0
 25 21  1  0  0  0  0
 26 25  2  0  0  0  0
 27 26  1  0  0  0  0
 28 27  1  0  0  0  0
 29 28  2  0  0  0  0
 30 31  2  0  0  0  0
 30 29  1  0  0  0  0
 31 32  1  0  0  0  0
 32 27  2  0  0  0  0
M  END
>  <minimizedAffinity>
-7.66488886

$$$$

 OpenBabel12271915193D

 32 35  0  0  1  0  0  0  0  0999 V2000
   20.5400   60.5240   32.5280 C   0  0  1  0  0  0  0  0  0  0  0  0
   20.4530   61.0710   31.1670 N   0  0  0  0  0  0  0  0  0  0  0  0
   20.4140   60.2970   30.5170 H   0  0  0  0  0  0  0  0  0  0  0  0
   21.2620   61.6670   30.9150 H   0  0  0  0  0  0  0  0  0  0  0  0
   19.5550   61.5960   31.0800 H   0  0  0  0  0  0  0  0  0  0  0  0
   20.5380   61.5950   33.6050 C   0  0  0  0  0  0  0  0  0  0  0  0
   21.9030   61.9750   34.0080 C   0  0  0  0  0  0  0  0  0  0  0  0
   22.5280   63.1670   33.6590 C   0  0  0  0  0  0  0  0  0  0  0  0
   22.1350   64.2640   32.9040 C   0  0  0  0  0  0  0  0  0  0  0  0
   23.0400   65.3170   32.7390 C   0  0  0  0  0  0  0  0  0  0  0  0
   24.3020   65.2770   33.3140 C   0  0  0  0  0  0  0  0  0  0  0  0
   24.6830   64.1550   34.0820 C   0  0  0  0  0  0  0  0  0  0  0  0
   23.7700   63.1170   34.2390 C   0  0  0  0  0  0  0  0  0  0  0  0
   23.9190   61.9160   34.9430 N   0  0  0  0  0  0  0  0  0  0  0  0
   24.7210   61.5950   35.4480 H   0  0  0  0  0  0  0  0  0  0  0  0
   22.7420   61.2270   34.7920 C   0  0  0  0  0  0  0  0  0  0  0  0
   19.2420   59.7340   32.7890 C   0  0  0  0  0  0  0  0  0  0  0  0
   18.0890   60.4110   32.1220 O   0  0  0  0  0  0  0  0  0  0  0  0
   16.9850   61.0930   32.1820 C   0  0  0  0  0  0  0  0  0  0  0  0
   17.3120   62.4320   32.0040 C   0  0  0  0  0  0  0  0  0  0  0  0
   16.3530   63.4500   31.9870 C   0  0  0  0  0  0  0  0  0  0  0  0
   15.0640   63.0630   32.1540 C   0  0  0  0  0  0  0  0  0  0  0  0
   14.6940   61.7570   32.3380 N   0  0  0  0  0  0  0  0  0  0  0  0
   15.6910   60.7760   32.3610 C   0  0  0  0  0  0  0  0  0  0  0  0
   16.7430   64.8510   31.7930 C   0  0  0  0  0  0  0  0  0  0  0  0
   17.9750   65.2940   31.5310 C   0  0  0  0  0  0  0  0  0  0  0  0
   18.3100   66.7070   31.3490 C   0  0  0  0  0  0  0  0  0  0  0  0
   17.8150   67.3750   30.2120 C   0  0  0  0  0  0  0  0  0  0  0  0
   18.1080   68.6880   30.0170 C   0  0  0  0  0  0  0  0  0  0  0  0
   18.8650   69.3670   30.8910 N   0  0  0  0  0  0  0  0  0  0  0  0
   19.3440   68.7270   31.9850 C   0  0  0  0  0  0  0  0  0  0  0  0
   19.0940   67.4330   32.2400 C   0  0  0  0  0  0  0  0  0  0  0  0
  1 17  1  1  0  0  0
  1  6  1  0  0  0  0
  2  1  1  0  0  0  0
  3  2  1  0  0  0  0
  4  2  1  0  0  0  0
  5  2  1  0  0  0  0
  6  7  1  0  0  0  0
  7 16  2  0  0  0  0
  8  7  1  0  0  0  0
  8 13  2  0  0  0  0
  9  8  1  0  0  0  0
 10  9  2  0  0  0  0
 10 11  1  0  0  0  0
 11 12  2  0  0  0  0
 12 13  1  0  0  0  0
 13 14  1  0  0  0  0
 14 15  1  0  0  0  0
 16 14  1  0  0  0  0
 18 19  1  0  0  0  0
 18 17  1  0  0  0  0
 19 24  2  0  0  0  0
 20 19  1  0  0  0  0
 21 20  2  0  0  0  0
 21 22  1  0  0  0  0
 22 23  2  0  0  0  0
 23 24  1  0  0  0  0
 25 21  1  0  0  0  0
 26 25  2  0  0  0  0
 27 26  1  0  0  0  0
 27 32  2  0  0  0  0
 28 27  1  0  0  0  0
 29 28  2  0  0  0  0
 29 30  1  0  0  0  0
 30 31  2  0  0  0  0
 31 32  1  0  0  0  0
M  END
>  <minimizedAffinity>
-7.59064865

$$$$
