
 OpenBabel12271915203D

 32 35  0  0  1  0  0  0  0  0999 V2000
   22.0130   67.0620   31.8490 C   0  0  0  0  0  0  0  0  0  0  0  0
   22.6510   65.8900   32.1970 C   0  0  0  0  0  0  0  0  0  0  0  0
   24.0830   65.8370   32.3510 C   0  0  0  0  0  0  0  0  0  0  0  0
   24.7080   67.0430   32.1210 C   0  0  0  0  0  0  0  0  0  0  0  0
   24.0830   68.1920   31.7660 N   0  0  0  0  0  0  0  0  0  0  0  0
   22.6920   68.1500   31.6300 C   0  0  0  0  0  0  0  0  0  0  0  0
   24.7390   64.6360   32.7290 C   0  0  0  0  0  0  0  0  0  0  0  0
   24.4810   64.0240   33.9390 C   0  0  0  0  0  0  0  0  0  0  0  0
   25.1190   62.8340   34.3290 C   0  0  0  0  0  0  0  0  0  0  0  0
   26.0290   62.2760   33.4630 C   0  0  0  0  0  0  0  0  0  0  0  0
   26.7990   61.1320   33.5690 N   0  0  0  0  0  0  0  0  0  0  0  0
   26.8440   60.4640   34.3300 H   0  0  0  0  0  0  0  0  0  0  0  0
   27.5780   60.9650   32.4420 N   0  0  0  0  0  0  0  0  0  0  0  0
   27.2580   62.0210   31.6630 C   0  0  0  0  0  0  0  0  0  0  0  0
   27.8760   62.2720   30.3060 C   0  0  0  0  0  0  0  0  0  0  0  0
   26.3100   62.8520   32.2580 C   0  0  0  0  0  0  0  0  0  0  0  0
   25.6730   64.0260   31.8860 C   0  0  0  0  0  0  0  0  0  0  0  0
   20.7520   66.8450   31.8610 O   0  0  0  0  0  0  0  0  0  0  0  0
   19.3020   66.6580   31.4050 C   0  0  0  0  0  0  0  0  0  0  0  0
   18.6690   65.4890   32.0110 C   0  0  1  0  0  0  0  0  0  0  0  0
   17.1300   65.5910   31.9050 N   0  0  0  0  0  0  0  0  0  0  0  0
   16.7170   65.1680   32.7060 H   0  0  0  0  0  0  0  0  0  0  0  0
   16.8220   65.1810   31.0240 H   0  0  0  0  0  0  0  0  0  0  0  0
   16.8960   66.5620   31.8770 H   0  0  0  0  0  0  0  0  0  0  0  0
   19.2390   64.2220   31.3600 C   0  0  0  0  0  0  0  0  0  0  0  0
   20.0920   63.4270   32.2690 C   0  0  0  0  0  0  0  0  0  0  0  0
   20.9620   62.4680   31.7630 C   0  0  0  0  0  0  0  0  0  0  0  0
   21.7390   61.7120   32.6730 C   0  0  0  0  0  0  0  0  0  0  0  0
   21.6460   61.9170   34.0370 C   0  0  0  0  0  0  0  0  0  0  0  0
   22.6800   60.9090   35.2460 Br  0  0  0  0  0  0  0  0  0  0  0  0
   20.7750   62.8820   34.5320 C   0  0  0  0  0  0  0  0  0  0  0  0
   20.0110   63.6230   33.6480 C   0  0  0  0  0  0  0  0  0  0  0  0
  1 18  1  0  0  0  0
  1  2  2  0  0  0  0
  2  3  1  0  0  0  0
  3  7  1  0  0  0  0
  4  3  2  0  0  0  0
  5  4  1  0  0  0  0
  6  5  2  0  0  0  0
  6  1  1  0  0  0  0
  7  8  2  0  0  0  0
  8  9  1  0  0  0  0
 10 11  1  0  0  0  0
 10  9  2  0  0  0  0
 11 12  1  0  0  0  0
 13 11  1  0  0  0  0
 14 16  1  0  0  0  0
 14 13  2  0  0  0  0
 15 14  1  0  0  0  0
 16 10  1  0  0  0  0
 17 16  2  0  0  0  0
 17  7  1  0  0  0  0
 19 18  1  0  0  0  0
 19 20  1  0  0  0  0
 20 25  1  6  0  0  0
 21 20  1  0  0  0  0
 21 22  1  0  0  0  0
 23 21  1  0  0  0  0
 24 21  1  0  0  0  0
 25 26  1  0  0  0  0
 26 32  1  0  0  0  0
 27 26  2  0  0  0  0
 27 28  1  0  0  0  0
 28 29  2  0  0  0  0
 29 31  1  0  0  0  0
 29 30  1  0  0  0  0
 32 31  2  0  0  0  0
M  END
>  <minimizedAffinity>
-9.45729351

$$$$

 OpenBabel12271915203D

 32 35  0  0  1  0  0  0  0  0999 V2000
   21.9130   67.2220   31.8820 C   0  0  0  0  0  0  0  0  0  0  0  0
   22.4920   66.0330   32.2730 C   0  0  0  0  0  0  0  0  0  0  0  0
   23.9220   65.9070   32.3990 C   0  0  0  0  0  0  0  0  0  0  0  0
   24.6080   67.0640   32.0990 C   0  0  0  0  0  0  0  0  0  0  0  0
   24.0390   68.2280   31.7030 N   0  0  0  0  0  0  0  0  0  0  0  0
   22.6450   68.2590   31.5970 C   0  0  0  0  0  0  0  0  0  0  0  0
   24.5190   64.6890   32.8210 C   0  0  0  0  0  0  0  0  0  0  0  0
   24.1350   64.0650   33.9900 C   0  0  0  0  0  0  0  0  0  0  0  0
   24.7130   62.8590   34.4220 C   0  0  0  0  0  0  0  0  0  0  0  0
   25.6940   62.2980   33.6410 C   0  0  0  0  0  0  0  0  0  0  0  0
   26.4330   61.1390   33.8030 N   0  0  0  0  0  0  0  0  0  0  0  0
   26.3920   60.4600   34.5540 H   0  0  0  0  0  0  0  0  0  0  0  0
   27.3160   60.9750   32.7550 N   0  0  0  0  0  0  0  0  0  0  0  0
   27.0910   62.0470   31.9660 C   0  0  0  0  0  0  0  0  0  0  0  0
   27.8420   62.3070   30.6810 C   0  0  0  0  0  0  0  0  0  0  0  0
   26.1020   62.8860   32.4780 C   0  0  0  0  0  0  0  0  0  0  0  0
   25.5230   64.0750   32.0640 C   0  0  0  0  0  0  0  0  0  0  0  0
   20.6420   67.0770   31.9300 O   0  0  0  0  0  0  0  0  0  0  0  0
   19.1870   66.8370   31.5180 C   0  0  0  0  0  0  0  0  0  0  0  0
   18.3250   67.9810   31.8070 C   0  0  1  0  0  0  0  0  0  0  0  0
   17.0800   67.5310   32.6050 N   0  0  0  0  0  0  0  0  0  0  0  0
   16.3020   68.0960   32.3460 H   0  0  0  0  0  0  0  0  0  0  0  0
   17.2870   67.5580   33.6030 H   0  0  0  0  0  0  0  0  0  0  0  0
   16.8990   66.5780   32.3670 H   0  0  0  0  0  0  0  0  0  0  0  0
   19.1500   69.0560   32.5250 C   0  0  0  0  0  0  0  0  0  0  0  0
   18.7660   70.4360   32.1580 C   0  0  0  0  0  0  0  0  0  0  0  0
   19.1120   71.5060   32.9750 C   0  0  0  0  0  0  0  0  0  0  0  0
   18.7000   72.8060   32.5960 C   0  0  0  0  0  0  0  0  0  0  0  0
   17.9720   73.0180   31.4400 C   0  0  0  0  0  0  0  0  0  0  0  0
   17.4240   74.7490   30.9390 Br  0  0  0  0  0  0  0  0  0  0  0  0
   17.6350   71.9400   30.6280 C   0  0  0  0  0  0  0  0  0  0  0  0
   18.0340   70.6670   30.9940 C   0  0  0  0  0  0  0  0  0  0  0  0
  1 18  1  0  0  0  0
  1  2  2  0  0  0  0
  2  3  1  0  0  0  0
  3  7  1  0  0  0  0
  4  3  2  0  0  0  0
  5  4  1  0  0  0  0
  6  5  2  0  0  0  0
  6  1  1  0  0  0  0
  7  8  2  0  0  0  0
  8  9  1  0  0  0  0
 10 11  1  0  0  0  0
 10  9  2  0  0  0  0
 11 12  1  0  0  0  0
 13 11  1  0  0  0  0
 14 16  1  0  0  0  0
 14 13  2  0  0  0  0
 15 14  1  0  0  0  0
 16 10  1  0  0  0  0
 17 16  2  0  0  0  0
 17  7  1  0  0  0  0
 19 18  1  0  0  0  0
 20 19  1  1  0  0  0
 20 25  1  0  0  0  0
 20 21  1  0  0  0  0
 21 23  1  0  0  0  0
 22 21  1  0  0  0  0
 24 21  1  0  0  0  0
 26 25  1  0  0  0  0
 26 27  2  0  0  0  0
 28 27  1  0  0  0  0
 29 28  2  0  0  0  0
 30 29  1  0  0  0  0
 31 32  2  0  0  0  0
 31 29  1  0  0  0  0
 32 26  1  0  0  0  0
M  END
>  <minimizedAffinity>
-8.7439518

$$$$

 OpenBabel12271915203D

 32 35  0  0  1  0  0  0  0  0999 V2000
   20.2590   67.7720   31.6420 C   0  0  0  0  0  0  0  0  0  0  0  0
   20.1000   66.4200   31.8650 C   0  0  0  0  0  0  0  0  0  0  0  0
   18.8360   65.7700   31.6280 C   0  0  0  0  0  0  0  0  0  0  0  0
   17.8540   66.6210   31.1720 C   0  0  0  0  0  0  0  0  0  0  0  0
   18.0070   67.9510   30.9650 N   0  0  0  0  0  0  0  0  0  0  0  0
   19.2640   68.5020   31.2300 C   0  0  0  0  0  0  0  0  0  0  0  0
   18.6760   64.3740   31.8380 C   0  0  0  0  0  0  0  0  0  0  0  0
   17.4870   63.7340   31.5530 C   0  0  0  0  0  0  0  0  0  0  0  0
   17.3120   62.3540   31.7520 C   0  0  0  0  0  0  0  0  0  0  0  0
   18.3710   61.6340   32.2510 C   0  0  0  0  0  0  0  0  0  0  0  0
   18.4950   60.2890   32.5480 N   0  0  0  0  0  0  0  0  0  0  0  0
   17.8060   59.5510   32.4520 H   0  0  0  0  0  0  0  0  0  0  0  0
   19.7560   60.0130   33.0330 N   0  0  0  0  0  0  0  0  0  0  0  0
   20.3820   61.2090   33.0190 C   0  0  0  0  0  0  0  0  0  0  0  0
   21.8080   61.4080   33.4790 C   0  0  0  0  0  0  0  0  0  0  0  0
   19.5620   62.2320   32.5460 C   0  0  0  0  0  0  0  0  0  0  0  0
   19.7210   63.5940   32.3440 C   0  0  0  0  0  0  0  0  0  0  0  0
   21.4870   68.0660   31.8540 O   0  0  0  0  0  0  0  0  0  0  0  0
   23.0150   67.9790   31.9200 C   0  0  0  0  0  0  0  0  0  0  0  0
   23.5030   66.6040   31.8360 C   0  0  1  0  0  0  0  0  0  0  0  0
   23.7120   66.1950   30.3600 N   0  0  0  0  0  0  0  0  0  0  0  0
   23.5090   65.2260   30.2560 H   0  0  0  0  0  0  0  0  0  0  0  0
   24.6560   66.4450   30.0680 H   0  0  0  0  0  0  0  0  0  0  0  0
   23.0790   66.7340   29.8070 H   0  0  0  0  0  0  0  0  0  0  0  0
   24.7720   66.4750   32.6870 C   0  0  0  0  0  0  0  0  0  0  0  0
   25.0210   65.0990   33.1670 C   0  0  0  0  0  0  0  0  0  0  0  0
   24.5430   64.6850   34.4050 C   0  0  0  0  0  0  0  0  0  0  0  0
   24.8290   63.3670   34.8340 C   0  0  0  0  0  0  0  0  0  0  0  0
   25.5640   62.5010   34.0460 C   0  0  0  0  0  0  0  0  0  0  0  0
   25.9440   60.7470   34.6190 Br  0  0  0  0  0  0  0  0  0  0  0  0
   26.0340   62.9240   32.8070 C   0  0  0  0  0  0  0  0  0  0  0  0
   25.7590   64.2120   32.3830 C   0  0  0  0  0  0  0  0  0  0  0  0
  1 18  1  0  0  0  0
  1  2  1  0  0  0  0
  3  7  1  0  0  0  0
  3  2  2  0  0  0  0
  4  3  1  0  0  0  0
  5  4  2  0  0  0  0
  5  6  1  0  0  0  0
  6  1  2  0  0  0  0
  7 17  2  0  0  0  0
  8  9  2  0  0  0  0
  8  7  1  0  0  0  0
  9 10  1  0  0  0  0
 10 16  2  0  0  0  0
 10 11  1  0  0  0  0
 11 13  1  0  0  0  0
 12 11  1  0  0  0  0
 14 13  2  0  0  0  0
 14 15  1  0  0  0  0
 16 14  1  0  0  0  0
 17 16  1  0  0  0  0
 18 19  1  0  0  0  0
 20 19  1  6  0  0  0
 20 25  1  0  0  0  0
 21 20  1  0  0  0  0
 22 21  1  0  0  0  0
 23 21  1  0  0  0  0
 24 21  1  0  0  0  0
 25 26  1  0  0  0  0
 26 27  2  0  0  0  0
 27 28  1  0  0  0  0
 29 30  1  0  0  0  0
 29 28  2  0  0  0  0
 31 29  1  0  0  0  0
 32 31  2  0  0  0  0
 32 26  1  0  0  0  0
M  END
>  <minimizedAffinity>
-8.61001492

$$$$

 OpenBabel12271915203D

 32 35  0  0  1  0  0  0  0  0999 V2000
   23.3950   66.2980   32.1550 C   0  0  0  0  0  0  0  0  0  0  0  0
   22.1240   65.7730   32.0430 C   0  0  0  0  0  0  0  0  0  0  0  0
   20.9910   66.6170   31.7600 C   0  0  0  0  0  0  0  0  0  0  0  0
   21.3150   67.9490   31.6180 C   0  0  0  0  0  0  0  0  0  0  0  0
   22.5610   68.4660   31.7410 N   0  0  0  0  0  0  0  0  0  0  0  0
   23.6010   67.5760   32.0270 C   0  0  0  0  0  0  0  0  0  0  0  0
   19.6860   66.0750   31.6240 C   0  0  0  0  0  0  0  0  0  0  0  0
   19.4370   64.7330   31.8340 C   0  0  0  0  0  0  0  0  0  0  0  0
   18.1510   64.1800   31.7060 C   0  0  0  0  0  0  0  0  0  0  0  0
   17.1190   65.0180   31.3580 C   0  0  0  0  0  0  0  0  0  0  0  0
   15.7730   64.7680   31.1610 N   0  0  0  0  0  0  0  0  0  0  0  0
   15.2720   63.8900   31.2370 H   0  0  0  0  0  0  0  0  0  0  0  0
   15.1090   65.9280   30.8170 N   0  0  0  0  0  0  0  0  0  0  0  0
   16.0750   66.8710   30.8160 C   0  0  0  0  0  0  0  0  0  0  0  0
   15.8200   68.3230   30.4840 C   0  0  0  0  0  0  0  0  0  0  0  0
   17.3260   66.3500   31.1420 C   0  0  0  0  0  0  0  0  0  0  0  0
   18.5990   66.8830   31.2710 C   0  0  0  0  0  0  0  0  0  0  0  0
   24.2100   65.3270   32.3280 O   0  0  0  0  0  0  0  0  0  0  0  0
   25.2250   64.3740   32.9650 C   0  0  0  0  0  0  0  0  0  0  0  0
   24.6570   63.0580   33.2510 C   0  0  1  0  0  0  0  0  0  0  0  0
   25.7520   62.0980   33.7680 N   0  0  0  0  0  0  0  0  0  0  0  0
   25.5510   61.1730   33.4580 H   0  0  0  0  0  0  0  0  0  0  0  0
   25.8240   62.1780   34.7820 H   0  0  0  0  0  0  0  0  0  0  0  0
   26.6230   62.4010   33.3840 H   0  0  0  0  0  0  0  0  0  0  0  0
   23.4850   63.2240   34.2260 C   0  0  0  0  0  0  0  0  0  0  0  0
   22.2450   62.5580   33.7740 C   0  0  0  0  0  0  0  0  0  0  0  0
   21.1180   62.5360   34.5880 C   0  0  0  0  0  0  0  0  0  0  0  0
   19.9620   61.8630   34.1250 C   0  0  0  0  0  0  0  0  0  0  0  0
   19.9420   61.2410   32.8910 C   0  0  0  0  0  0  0  0  0  0  0  0
   18.4030   60.3460   32.2770 Br  0  0  0  0  0  0  0  0  0  0  0  0
   21.0740   61.2730   32.0820 C   0  0  0  0  0  0  0  0  0  0  0  0
   22.2070   61.9280   32.5300 C   0  0  0  0  0  0  0  0  0  0  0  0
  1 18  1  0  0  0  0
  2  1  1  0  0  0  0
  3  2  2  0  0  0  0
  4  5  2  0  0  0  0
  4  3  1  0  0  0  0
  5  6  1  0  0  0  0
  6  1  2  0  0  0  0
  7  3  1  0  0  0  0
  7  8  2  0  0  0  0
  9  8  1  0  0  0  0
 10  9  2  0  0  0  0
 11 12  1  0  0  0  0
 11 10  1  0  0  0  0
 13 11  1  0  0  0  0
 14 13  2  0  0  0  0
 14 16  1  0  0  0  0
 15 14  1  0  0  0  0
 16 17  2  0  0  0  0
 16 10  1  0  0  0  0
 17  7  1  0  0  0  0
 18 19  1  0  0  0  0
 20 19  1  1  0  0  0
 20 21  1  0  0  0  0
 20 25  1  0  0  0  0
 21 23  1  0  0  0  0
 22 21  1  0  0  0  0
 24 21  1  0  0  0  0
 26 25  1  0  0  0  0
 26 27  2  0  0  0  0
 28 27  1  0  0  0  0
 29 28  2  0  0  0  0
 30 29  1  0  0  0  0
 31 32  2  0  0  0  0
 31 29  1  0  0  0  0
 32 26  1  0  0  0  0
M  END
>  <minimizedAffinity>
-8.50706768

$$$$

 OpenBabel12271915203D

 32 35  0  0  1  0  0  0  0  0999 V2000
   21.5460   67.3520   31.9240 C   0  0  0  0  0  0  0  0  0  0  0  0
   22.1280   66.1750   32.3470 C   0  0  0  0  0  0  0  0  0  0  0  0
   23.5600   66.0290   32.4010 C   0  0  0  0  0  0  0  0  0  0  0  0
   24.2460   67.1550   32.0020 C   0  0  0  0  0  0  0  0  0  0  0  0
   23.6750   68.3070   31.5750 N   0  0  0  0  0  0  0  0  0  0  0  0
   22.2780   68.3580   31.5440 C   0  0  0  0  0  0  0  0  0  0  0  0
   24.1610   64.8240   32.8550 C   0  0  0  0  0  0  0  0  0  0  0  0
   23.7230   64.1870   33.9980 C   0  0  0  0  0  0  0  0  0  0  0  0
   24.3040   62.9940   34.4610 C   0  0  0  0  0  0  0  0  0  0  0  0
   25.3420   62.4590   33.7380 C   0  0  0  0  0  0  0  0  0  0  0  0
   26.0980   61.3180   33.9410 N   0  0  0  0  0  0  0  0  0  0  0  0
   26.0300   60.6350   34.6870 H   0  0  0  0  0  0  0  0  0  0  0  0
   27.0450   61.1780   32.9470 N   0  0  0  0  0  0  0  0  0  0  0  0
   26.8410   62.2470   32.1480 C   0  0  0  0  0  0  0  0  0  0  0  0
   27.6600   62.5290   30.9090 C   0  0  0  0  0  0  0  0  0  0  0  0
   25.8030   63.0600   32.6020 C   0  0  0  0  0  0  0  0  0  0  0  0
   25.2220   64.2370   32.1570 C   0  0  0  0  0  0  0  0  0  0  0  0
   20.2780   67.2340   32.0500 O   0  0  0  0  0  0  0  0  0  0  0  0
   18.7720   67.4610   31.8940 C   0  0  0  0  0  0  0  0  0  0  0  0
   18.0010   66.2250   32.0170 C   0  0  1  0  0  0  0  0  0  0  0  0
   16.4860   66.5310   32.0200 N   0  0  0  0  0  0  0  0  0  0  0  0
   16.0200   65.8740   32.6060 H   0  0  0  0  0  0  0  0  0  0  0  0
   16.1380   66.5380   31.0620 H   0  0  0  0  0  0  0  0  0  0  0  0
   16.3670   67.4530   32.3850 H   0  0  0  0  0  0  0  0  0  0  0  0
   18.4240   65.2640   30.8990 C   0  0  0  0  0  0  0  0  0  0  0  0
   18.6390   63.8770   31.3650 C   0  0  0  0  0  0  0  0  0  0  0  0
   17.5620   63.0850   31.7460 C   0  0  0  0  0  0  0  0  0  0  0  0
   17.8190   61.7730   32.2110 C   0  0  0  0  0  0  0  0  0  0  0  0
   19.1080   61.2790   32.2860 C   0  0  0  0  0  0  0  0  0  0  0  0
   19.4480   59.5330   32.9060 Br  0  0  0  0  0  0  0  0  0  0  0  0
   20.1780   62.0800   31.8990 C   0  0  0  0  0  0  0  0  0  0  0  0
   19.9330   63.3630   31.4450 C   0  0  0  0  0  0  0  0  0  0  0  0
  1 18  1  0  0  0  0
  1  2  2  0  0  0  0
  2  3  1  0  0  0  0
  3  7  1  0  0  0  0
  4  3  2  0  0  0  0
  5  4  1  0  0  0  0
  6  5  2  0  0  0  0
  6  1  1  0  0  0  0
  7  8  2  0  0  0  0
  8  9  1  0  0  0  0
 10 11  1  0  0  0  0
 10  9  2  0  0  0  0
 11 12  1  0  0  0  0
 13 11  1  0  0  0  0
 14 16  1  0  0  0  0
 14 13  2  0  0  0  0
 15 14  1  0  0  0  0
 16 10  1  0  0  0  0
 17 16  2  0  0  0  0
 17  7  1  0  0  0  0
 19 20  1  0  0  0  0
 19 18  1  0  0  0  0
 20 25  1  6  0  0  0
 20 21  1  0  0  0  0
 21 24  1  0  0  0  0
 21 22  1  0  0  0  0
 23 21  1  0  0  0  0
 25 26  1  0  0  0  0
 26 32  2  0  0  0  0
 26 27  1  0  0  0  0
 27 28  2  0  0  0  0
 28 29  1  0  0  0  0
 29 30  1  0  0  0  0
 31 29  2  0  0  0  0
 32 31  1  0  0  0  0
M  END
>  <minimizedAffinity>
-8.47502232

$$$$

 OpenBabel12271915203D

 32 35  0  0  1  0  0  0  0  0999 V2000
   20.1840   61.3880   32.9420 C   0  0  0  0  0  0  0  0  0  0  0  0
   19.8330   62.6360   32.4690 C   0  0  0  0  0  0  0  0  0  0  0  0
   18.5180   62.8880   31.9370 C   0  0  0  0  0  0  0  0  0  0  0  0
   17.6910   61.7860   31.9610 C   0  0  0  0  0  0  0  0  0  0  0  0
   18.0400   60.5580   32.4150 N   0  0  0  0  0  0  0  0  0  0  0  0
   19.3400   60.3990   32.9040 C   0  0  0  0  0  0  0  0  0  0  0  0
   18.1490   64.1770   31.4680 C   0  0  0  0  0  0  0  0  0  0  0  0
   16.9420   64.3960   30.8350 C   0  0  0  0  0  0  0  0  0  0  0  0
   16.5600   65.6640   30.3660 C   0  0  0  0  0  0  0  0  0  0  0  0
   17.4320   66.7100   30.5500 C   0  0  0  0  0  0  0  0  0  0  0  0
   17.3350   68.0450   30.2020 N   0  0  0  0  0  0  0  0  0  0  0  0
   16.5780   68.5250   29.7280 H   0  0  0  0  0  0  0  0  0  0  0  0
   18.4670   68.7320   30.5910 N   0  0  0  0  0  0  0  0  0  0  0  0
   19.2360   67.7900   31.1770 C   0  0  0  0  0  0  0  0  0  0  0  0
   20.6010   68.0760   31.7600 C   0  0  0  0  0  0  0  0  0  0  0  0
   18.6350   66.5330   31.1700 C   0  0  0  0  0  0  0  0  0  0  0  0
   18.9990   65.2760   31.6280 C   0  0  0  0  0  0  0  0  0  0  0  0
   21.3680   61.4660   33.4230 O   0  0  0  0  0  0  0  0  0  0  0  0
   22.8670   61.2460   33.6440 C   0  0  0  0  0  0  0  0  0  0  0  0
   23.2690   61.4710   35.0310 C   0  0  1  0  0  0  0  0  0  0  0  0
   23.4180   60.1250   35.7750 N   0  0  0  0  0  0  0  0  0  0  0  0
   23.1540   60.2460   36.7280 H   0  0  0  0  0  0  0  0  0  0  0  0
   24.3680   59.7750   35.6590 H   0  0  0  0  0  0  0  0  0  0  0  0
   22.8050   59.4700   35.3360 H   0  0  0  0  0  0  0  0  0  0  0  0
   24.5480   62.3180   35.0460 C   0  0  0  0  0  0  0  0  0  0  0  0
   24.4910   63.4850   34.1400 C   0  0  0  0  0  0  0  0  0  0  0  0
   25.5170   63.7260   33.2330 C   0  0  0  0  0  0  0  0  0  0  0  0
   25.4320   64.8700   32.4050 C   0  0  0  0  0  0  0  0  0  0  0  0
   24.3570   65.7350   32.4850 C   0  0  0  0  0  0  0  0  0  0  0  0
   24.2470   67.2580   31.3820 Br  0  0  0  0  0  0  0  0  0  0  0  0
   23.3340   65.4820   33.3940 C   0  0  0  0  0  0  0  0  0  0  0  0
   23.4120   64.3660   34.2070 C   0  0  0  0  0  0  0  0  0  0  0  0
  1 18  1  0  0  0  0
  2  1  2  0  0  0  0
  3  4  2  0  0  0  0
  3  2  1  0  0  0  0
  4  5  1  0  0  0  0
  5  6  2  0  0  0  0
  6  1  1  0  0  0  0
  7 17  1  0  0  0  0
  7  3  1  0  0  0  0
  8  7  2  0  0  0  0
  9 10  2  0  0  0  0
  9  8  1  0  0  0  0
 10 16  1  0  0  0  0
 11 10  1  0  0  0  0
 11 13  1  0  0  0  0
 12 11  1  0  0  0  0
 13 14  2  0  0  0  0
 14 15  1  0  0  0  0
 16 14  1  0  0  0  0
 16 17  2  0  0  0  0
 18 19  1  0  0  0  0
 20 19  1  6  0  0  0
 20 25  1  0  0  0  0
 20 21  1  0  0  0  0
 21 22  1  0  0  0  0
 23 21  1  0  0  0  0
 24 21  1  0  0  0  0
 26 32  1  0  0  0  0
 26 25  1  0  0  0  0
 27 26  2  0  0  0  0
 28 29  2  0  0  0  0
 28 27  1  0  0  0  0
 29 31  1  0  0  0  0
 30 29  1  0  0  0  0
 31 32  2  0  0  0  0
M  END
>  <minimizedAffinity>
-8.47191811

$$$$

 OpenBabel12271915203D

 32 35  0  0  1  0  0  0  0  0999 V2000
   23.8800   66.0470   32.1880 C   0  0  0  0  0  0  0  0  0  0  0  0
   22.5060   65.9250   32.1900 C   0  0  0  0  0  0  0  0  0  0  0  0
   21.6560   67.0590   31.9300 C   0  0  0  0  0  0  0  0  0  0  0  0
   22.3500   68.2250   31.6870 C   0  0  0  0  0  0  0  0  0  0  0  0
   23.6990   68.3470   31.6970 N   0  0  0  0  0  0  0  0  0  0  0  0
   24.4460   67.1970   31.9690 C   0  0  0  0  0  0  0  0  0  0  0  0
   20.2420   66.9310   31.9130 C   0  0  0  0  0  0  0  0  0  0  0  0
   19.6290   65.7570   31.5240 C   0  0  0  0  0  0  0  0  0  0  0  0
   18.2320   65.6110   31.5030 C   0  0  0  0  0  0  0  0  0  0  0  0
   17.4650   66.6860   31.8840 C   0  0  0  0  0  0  0  0  0  0  0  0
   16.0930   66.8400   31.9630 N   0  0  0  0  0  0  0  0  0  0  0  0
   15.3640   66.1690   31.7480 H   0  0  0  0  0  0  0  0  0  0  0  0
   15.7710   68.1090   32.4000 N   0  0  0  0  0  0  0  0  0  0  0  0
   16.9670   68.7060   32.5830 C   0  0  0  0  0  0  0  0  0  0  0  0
   17.1220   70.1330   33.0570 C   0  0  0  0  0  0  0  0  0  0  0  0
   18.0340   67.8640   32.2740 C   0  0  0  0  0  0  0  0  0  0  0  0
   19.4150   67.9940   32.2900 C   0  0  0  0  0  0  0  0  0  0  0  0
   24.3800   64.8820   32.3660 O   0  0  0  0  0  0  0  0  0  0  0  0
   25.3270   63.7520   32.7790 C   0  0  0  0  0  0  0  0  0  0  0  0
   24.6180   62.5950   33.3220 C   0  0  1  0  0  0  0  0  0  0  0  0
   25.6140   61.6080   33.9730 N   0  0  0  0  0  0  0  0  0  0  0  0
   25.2830   60.6770   33.8460 H   0  0  0  0  0  0  0  0  0  0  0  0
   25.7530   61.8590   34.9510 H   0  0  0  0  0  0  0  0  0  0  0  0
   26.4920   61.7200   33.5100 H   0  0  0  0  0  0  0  0  0  0  0  0
   23.5330   63.0870   34.2880 C   0  0  0  0  0  0  0  0  0  0  0  0
   22.1590   62.7880   33.8300 C   0  0  0  0  0  0  0  0  0  0  0  0
   21.9450   62.0100   32.6980 C   0  0  0  0  0  0  0  0  0  0  0  0
   20.6140   61.7720   32.2830 C   0  0  0  0  0  0  0  0  0  0  0  0
   19.5410   62.2940   32.9810 C   0  0  0  0  0  0  0  0  0  0  0  0
   17.7690   61.9780   32.4260 Br  0  0  0  0  0  0  0  0  0  0  0  0
   19.7670   63.0690   34.1150 C   0  0  0  0  0  0  0  0  0  0  0  0
   21.0660   63.3060   34.5250 C   0  0  0  0  0  0  0  0  0  0  0  0
  1  2  1  0  0  0  0
  1 18  1  0  0  0  0
  3  2  2  0  0  0  0
  4  5  2  0  0  0  0
  4  3  1  0  0  0  0
  5  6  1  0  0  0  0
  6  1  2  0  0  0  0
  7  3  1  0  0  0  0
  7 17  2  0  0  0  0
  8  7  1  0  0  0  0
  9  8  2  0  0  0  0
  9 10  1  0  0  0  0
 10 11  1  0  0  0  0
 10 16  2  0  0  0  0
 11 13  1  0  0  0  0
 12 11  1  0  0  0  0
 13 14  2  0  0  0  0
 14 15  1  0  0  0  0
 16 17  1  0  0  0  0
 16 14  1  0  0  0  0
 18 19  1  0  0  0  0
 20 19  1  1  0  0  0
 20 21  1  0  0  0  0
 20 25  1  0  0  0  0
 21 23  1  0  0  0  0
 22 21  1  0  0  0  0
 24 21  1  0  0  0  0
 26 25  1  0  0  0  0
 26 32  2  0  0  0  0
 27 26  1  0  0  0  0
 28 27  2  0  0  0  0
 28 29  1  0  0  0  0
 29 31  2  0  0  0  0
 30 29  1  0  0  0  0
 31 32  1  0  0  0  0
M  END
>  <minimizedAffinity>
-8.37891293

$$$$

 OpenBabel12271915203D

 32 35  0  0  1  0  0  0  0  0999 V2000
   19.3290   66.9210   31.7550 C   0  0  0  0  0  0  0  0  0  0  0  0
   19.9880   65.8220   32.2680 C   0  0  0  0  0  0  0  0  0  0  0  0
   21.4260   65.7880   32.3540 C   0  0  0  0  0  0  0  0  0  0  0  0
   22.0340   66.9330   31.8860 C   0  0  0  0  0  0  0  0  0  0  0  0
   21.3880   68.0060   31.3710 N   0  0  0  0  0  0  0  0  0  0  0  0
   19.9920   67.9500   31.3160 C   0  0  0  0  0  0  0  0  0  0  0  0
   22.1040   64.6660   32.9000 C   0  0  0  0  0  0  0  0  0  0  0  0
   21.4920   63.8270   33.8100 C   0  0  0  0  0  0  0  0  0  0  0  0
   22.1470   62.7120   34.3590 C   0  0  0  0  0  0  0  0  0  0  0  0
   23.4410   62.4650   33.9660 C   0  0  0  0  0  0  0  0  0  0  0  0
   24.3240   61.4630   34.3280 N   0  0  0  0  0  0  0  0  0  0  0  0
   24.1840   60.6940   34.9730 H   0  0  0  0  0  0  0  0  0  0  0  0
   25.5290   61.6180   33.6730 N   0  0  0  0  0  0  0  0  0  0  0  0
   25.3500   62.7210   32.9150 C   0  0  0  0  0  0  0  0  0  0  0  0
   26.4200   63.2940   32.0140 C   0  0  0  0  0  0  0  0  0  0  0  0
   24.0790   63.2720   33.0690 C   0  0  0  0  0  0  0  0  0  0  0  0
   23.4210   64.3690   32.5350 C   0  0  0  0  0  0  0  0  0  0  0  0
   18.0710   66.7170   31.8700 O   0  0  0  0  0  0  0  0  0  0  0  0
   16.5970   66.4770   31.5290 C   0  0  0  0  0  0  0  0  0  0  0  0
   16.2100   65.0740   31.6660 C   0  0  1  0  0  0  0  0  0  0  0  0
   14.6830   64.9150   31.4870 N   0  0  0  0  0  0  0  0  0  0  0  0
   14.3590   64.1760   32.0710 H   0  0  0  0  0  0  0  0  0  0  0  0
   14.4690   64.7760   30.5010 H   0  0  0  0  0  0  0  0  0  0  0  0
   14.2580   65.7750   31.7640 H   0  0  0  0  0  0  0  0  0  0  0  0
   17.0280   64.2340   30.6780 C   0  0  0  0  0  0  0  0  0  0  0  0
   17.5070   62.9560   31.2470 C   0  0  0  0  0  0  0  0  0  0  0  0
   18.8630   62.7470   31.4720 C   0  0  0  0  0  0  0  0  0  0  0  0
   19.2780   61.4990   31.9930 C   0  0  0  0  0  0  0  0  0  0  0  0
   18.3630   60.5030   32.2800 C   0  0  0  0  0  0  0  0  0  0  0  0
   18.9170   58.8410   32.9740 Br  0  0  0  0  0  0  0  0  0  0  0  0
   17.0080   60.7240   32.0550 C   0  0  0  0  0  0  0  0  0  0  0  0
   16.5970   61.9420   31.5440 C   0  0  0  0  0  0  0  0  0  0  0  0
  1 18  1  0  0  0  0
  1  2  2  0  0  0  0
  2  3  1  0  0  0  0
  3  7  1  0  0  0  0
  4  3  2  0  0  0  0
  5  4  1  0  0  0  0
  6  5  2  0  0  0  0
  6  1  1  0  0  0  0
  7  8  1  0  0  0  0
  8  9  2  0  0  0  0
 10 11  1  0  0  0  0
 10  9  1  0  0  0  0
 11 12  1  0  0  0  0
 13 11  1  0  0  0  0
 14 16  1  0  0  0  0
 14 13  2  0  0  0  0
 15 14  1  0  0  0  0
 16 10  2  0  0  0  0
 17  7  2  0  0  0  0
 17 16  1  0  0  0  0
 19 20  1  0  0  0  0
 19 18  1  0  0  0  0
 20 25  1  6  0  0  0
 21 20  1  0  0  0  0
 21 24  1  0  0  0  0
 21 22  1  0  0  0  0
 23 21  1  0  0  0  0
 25 26  1  0  0  0  0
 26 27  2  0  0  0  0
 26 32  1  0  0  0  0
 27 28  1  0  0  0  0
 28 29  2  0  0  0  0
 29 30  1  0  0  0  0
 31 29  1  0  0  0  0
 32 31  2  0  0  0  0
M  END
>  <minimizedAffinity>
-8.32703781

$$$$

 OpenBabel12271915203D

 32 35  0  0  1  0  0  0  0  0999 V2000
   19.2640   65.3860   31.8760 C   0  0  0  0  0  0  0  0  0  0  0  0
   20.3580   64.7810   32.4600 C   0  0  0  0  0  0  0  0  0  0  0  0
   20.4470   63.3470   32.5690 C   0  0  0  0  0  0  0  0  0  0  0  0
   19.3600   62.6840   32.0410 C   0  0  0  0  0  0  0  0  0  0  0  0
   18.2800   63.2790   31.4800 N   0  0  0  0  0  0  0  0  0  0  0  0
   18.2720   64.6760   31.4250 C   0  0  0  0  0  0  0  0  0  0  0  0
   21.5820   62.7230   33.1510 C   0  0  0  0  0  0  0  0  0  0  0  0
   21.4510   61.7750   34.1470 C   0  0  0  0  0  0  0  0  0  0  0  0
   22.5620   61.1460   34.7330 C   0  0  0  0  0  0  0  0  0  0  0  0
   23.8140   61.5000   34.2890 C   0  0  0  0  0  0  0  0  0  0  0  0
   25.0700   61.0630   34.6690 N   0  0  0  0  0  0  0  0  0  0  0  0
   25.3180   60.3740   35.3710 H   0  0  0  0  0  0  0  0  0  0  0  0
   26.0500   61.7070   33.9420 N   0  0  0  0  0  0  0  0  0  0  0  0
   25.3610   62.5300   33.1220 C   0  0  0  0  0  0  0  0  0  0  0  0
   26.0220   63.4590   32.1290 C   0  0  0  0  0  0  0  0  0  0  0  0
   23.9830   62.4340   33.3080 C   0  0  0  0  0  0  0  0  0  0  0  0
   22.8780   63.0470   32.7370 C   0  0  0  0  0  0  0  0  0  0  0  0
   19.4810   66.6470   31.8410 O   0  0  0  0  0  0  0  0  0  0  0  0
   19.9240   68.0350   31.3720 C   0  0  0  0  0  0  0  0  0  0  0  0
   18.9320   69.0690   31.6590 C   0  0  1  0  0  0  0  0  0  0  0  0
   17.5260   68.4430   31.8030 N   0  0  0  0  0  0  0  0  0  0  0  0
   16.8450   69.0850   31.4640 H   0  0  0  0  0  0  0  0  0  0  0  0
   17.3750   68.1660   32.7720 H   0  0  0  0  0  0  0  0  0  0  0  0
   17.5110   67.6110   31.2510 H   0  0  0  0  0  0  0  0  0  0  0  0
   19.3770   69.8540   32.9000 C   0  0  0  0  0  0  0  0  0  0  0  0
   18.8350   71.2280   32.9530 C   0  0  0  0  0  0  0  0  0  0  0  0
   19.2350   72.1810   32.0230 C   0  0  0  0  0  0  0  0  0  0  0  0
   18.7100   73.4910   32.1290 C   0  0  0  0  0  0  0  0  0  0  0  0
   17.8170   73.8260   33.1290 C   0  0  0  0  0  0  0  0  0  0  0  0
   17.1190   75.5700   33.2690 Br  0  0  0  0  0  0  0  0  0  0  0  0
   17.4200   72.8630   34.0520 C   0  0  0  0  0  0  0  0  0  0  0  0
   17.9310   71.5810   33.9550 C   0  0  0  0  0  0  0  0  0  0  0  0
  1  2  2  0  0  0  0
  2  3  1  0  0  0  0
  3  7  1  0  0  0  0
  4  3  2  0  0  0  0
  5  4  1  0  0  0  0
  6  5  2  0  0  0  0
  6  1  1  0  0  0  0
  7  8  1  0  0  0  0
  8  9  2  0  0  0  0
 10 11  1  0  0  0  0
 10  9  1  0  0  0  0
 11 12  1  0  0  0  0
 13 11  1  0  0  0  0
 14 16  1  0  0  0  0
 14 13  2  0  0  0  0
 15 14  1  0  0  0  0
 16 10  2  0  0  0  0
 17  7  2  0  0  0  0
 17 16  1  0  0  0  0
 18  1  1  0  0  0  0
 19 18  1  0  0  0  0
 20 19  1  1  0  0  0
 20 21  1  0  0  0  0
 20 25  1  0  0  0  0
 21 23  1  0  0  0  0
 22 21  1  0  0  0  0
 24 21  1  0  0  0  0
 25 26  1  0  0  0  0
 26 32  2  0  0  0  0
 27 28  2  0  0  0  0
 27 26  1  0  0  0  0
 28 29  1  0  0  0  0
 29 30  1  0  0  0  0
 29 31  2  0  0  0  0
 32 31  1  0  0  0  0
M  END
>  <minimizedAffinity>
-8.18369293

$$$$
