
 OpenBabel12271915183D

 24 27  0  0  0  0  0  0  0  0999 V2000
   20.6680   64.4250   32.7800 N   0  0  0  0  0  0  0  0  0  0  0  0
   19.7950   63.4300   32.3920 C   0  0  0  0  0  0  0  0  0  0  0  0
   19.7080   62.1870   32.9990 N   0  0  0  0  0  0  0  0  0  0  0  0
   18.3610   61.8170   33.4610 C   0  0  0  0  0  0  0  0  0  0  0  0
   17.6530   60.9060   32.4320 C   0  0  0  0  0  0  0  0  0  0  0  0
   18.4890   59.7200   32.0480 N   0  0  0  0  0  0  0  0  0  0  0  0
   18.6180   59.7240   31.0220 H   0  0  0  0  0  0  0  0  0  0  0  0
   17.9710   58.8700   32.2970 H   0  0  0  0  0  0  0  0  0  0  0  0
   19.8200   59.6850   32.7220 C   0  0  0  0  0  0  0  0  0  0  0  0
   20.5640   61.0490   32.6070 C   0  0  0  0  0  0  0  0  0  0  0  0
   18.9360   63.9200   31.5340 N   0  0  0  0  0  0  0  0  0  0  0  0
   19.1620   65.2730   31.4380 C   0  0  0  0  0  0  0  0  0  0  0  0
   18.4730   66.2810   30.7490 C   0  0  0  0  0  0  0  0  0  0  0  0
   18.9020   67.6050   30.8680 C   0  0  0  0  0  0  0  0  0  0  0  0
   19.9790   67.9320   31.6680 C   0  0  0  0  0  0  0  0  0  0  0  0
   20.6520   66.9340   32.3610 C   0  0  0  0  0  0  0  0  0  0  0  0
   20.2350   65.6130   32.2190 C   0  0  0  0  0  0  0  0  0  0  0  0
   21.6720   64.3430   33.8150 C   0  0  0  0  0  0  0  0  0  0  0  0
   23.0820   64.2200   33.3050 C   0  0  0  0  0  0  0  0  0  0  0  0
   23.8510   65.3680   33.0720 C   0  0  0  0  0  0  0  0  0  0  0  0
   25.1660   65.2700   32.6460 C   0  0  0  0  0  0  0  0  0  0  0  0
   25.7500   64.0250   32.4480 C   0  0  0  0  0  0  0  0  0  0  0  0
   24.9930   62.8800   32.6670 C   0  0  0  0  0  0  0  0  0  0  0  0
   23.6780   62.9800   33.0830 C   0  0  0  0  0  0  0  0  0  0  0  0
  1 18  1  0  0  0  0
  2  1  1  0  0  0  0
  2  3  1  0  0  0  0
  3  4  1  0  0  0  0
  5  4  1  0  0  0  0
  6  8  1  0  0  0  0
  6  5  1  0  0  0  0
  6  9  1  0  0  0  0
  7  6  1  0  0  0  0
 10  9  1  0  0  0  0
 10  3  1  0  0  0  0
 11  2  2  0  0  0  0
 12 11  2  0  0  0  0
 12 17  1  0  0  0  0
 13 14  1  0  0  0  0
 13 12  1  0  0  0  0
 14 15  2  0  0  0  0
 15 16  1  0  0  0  0
 17 16  2  0  0  0  0
 17  1  1  0  0  0  0
 19 18  1  0  0  0  0
 20 19  2  0  0  0  0
 21 20  1  0  0  0  0
 22 21  2  0  0  0  0
 22 23  1  0  0  0  0
 23 24  2  0  0  0  0
 24 19  1  0  0  0  0
M  END
>  <minimizedAffinity>
-8.22844601

$$$$

 OpenBabel12271915183D

 24 27  0  0  0  0  0  0  0  0999 V2000
   22.5170   63.1520   32.6560 N   0  0  0  0  0  0  0  0  0  0  0  0
   21.2970   62.6370   33.0410 C   0  0  0  0  0  0  0  0  0  0  0  0
   20.1380   62.7240   32.2870 N   0  0  0  0  0  0  0  0  0  0  0  0
   19.4770   61.4380   32.0160 C   0  0  0  0  0  0  0  0  0  0  0  0
   18.3200   61.1890   33.0100 C   0  0  0  0  0  0  0  0  0  0  0  0
   17.3600   62.3420   33.0680 N   0  0  0  0  0  0  0  0  0  0  0  0
   17.2980   62.6730   34.0460 H   0  0  0  0  0  0  0  0  0  0  0  0
   16.4320   62.0000   32.7940 H   0  0  0  0  0  0  0  0  0  0  0  0
   17.7360   63.4780   32.1760 C   0  0  0  0  0  0  0  0  0  0  0  0
   19.2290   63.8850   32.3560 C   0  0  0  0  0  0  0  0  0  0  0  0
   21.4620   61.8790   34.0960 N   0  0  0  0  0  0  0  0  0  0  0  0
   22.8120   61.7950   34.3460 C   0  0  0  0  0  0  0  0  0  0  0  0
   23.5360   61.0420   35.2810 C   0  0  0  0  0  0  0  0  0  0  0  0
   24.9310   61.1130   35.2820 C   0  0  0  0  0  0  0  0  0  0  0  0
   25.6020   61.8960   34.3630 C   0  0  0  0  0  0  0  0  0  0  0  0
   24.8830   62.6290   33.4280 C   0  0  0  0  0  0  0  0  0  0  0  0
   23.4920   62.5740   33.4480 C   0  0  0  0  0  0  0  0  0  0  0  0
   22.7980   63.9140   31.4620 C   0  0  0  0  0  0  0  0  0  0  0  0
   22.9840   65.3890   31.6950 C   0  0  0  0  0  0  0  0  0  0  0  0
   24.2720   65.9410   31.7280 C   0  0  0  0  0  0  0  0  0  0  0  0
   24.4580   67.3040   31.8970 C   0  0  0  0  0  0  0  0  0  0  0  0
   23.3650   68.1520   32.0290 C   0  0  0  0  0  0  0  0  0  0  0  0
   22.0840   67.6140   32.0060 C   0  0  0  0  0  0  0  0  0  0  0  0
   21.9000   66.2520   31.8480 C   0  0  0  0  0  0  0  0  0  0  0  0
  1  2  1  0  0  0  0
  1 17  1  0  0  0  0
  2 11  2  0  0  0  0
  3 10  1  0  0  0  0
  3  2  1  0  0  0  0
  4  3  1  0  0  0  0
  4  5  1  0  0  0  0
  5  6  1  0  0  0  0
  6  7  1  0  0  0  0
  8  6  1  0  0  0  0
  9 10  1  0  0  0  0
  9  6  1  0  0  0  0
 11 12  2  0  0  0  0
 12 13  1  0  0  0  0
 13 14  1  0  0  0  0
 15 14  2  0  0  0  0
 16 17  2  0  0  0  0
 16 15  1  0  0  0  0
 17 12  1  0  0  0  0
 18 19  1  0  0  0  0
 18  1  1  0  0  0  0
 19 20  2  0  0  0  0
 19 24  1  0  0  0  0
 20 21  1  0  0  0  0
 21 22  2  0  0  0  0
 23 22  1  0  0  0  0
 24 23  2  0  0  0  0
M  END
>  <minimizedAffinity>
-7.82310057

$$$$

 OpenBabel12271915183D

 24 27  0  0  0  0  0  0  0  0999 V2000
   21.8190   64.3470   31.9860 N   0  0  0  0  0  0  0  0  0  0  0  0
   20.5900   63.8530   32.3680 C   0  0  0  0  0  0  0  0  0  0  0  0
   20.3740   62.5630   32.8260 N   0  0  0  0  0  0  0  0  0  0  0  0
   19.7070   62.4740   34.1340 C   0  0  0  0  0  0  0  0  0  0  0  0
   18.1900   62.2270   33.9680 C   0  0  0  0  0  0  0  0  0  0  0  0
   17.8970   61.0540   33.0780 N   0  0  0  0  0  0  0  0  0  0  0  0
   17.2970   61.3720   32.2970 H   0  0  0  0  0  0  0  0  0  0  0  0
   17.3660   60.3650   33.6220 H   0  0  0  0  0  0  0  0  0  0  0  0
   19.1210   60.3960   32.5350 C   0  0  0  0  0  0  0  0  0  0  0  0
   20.1090   61.4300   31.9170 C   0  0  0  0  0  0  0  0  0  0  0  0
   19.7320   64.8400   32.4410 N   0  0  0  0  0  0  0  0  0  0  0  0
   20.4180   66.0110   32.2210 C   0  0  0  0  0  0  0  0  0  0  0  0
   20.0090   67.3510   32.2840 C   0  0  0  0  0  0  0  0  0  0  0  0
   20.9450   68.3620   32.0560 C   0  0  0  0  0  0  0  0  0  0  0  0
   22.2660   68.0580   31.7900 C   0  0  0  0  0  0  0  0  0  0  0  0
   22.6720   66.7310   31.7420 C   0  0  0  0  0  0  0  0  0  0  0  0
   21.7290   65.7270   31.9460 C   0  0  0  0  0  0  0  0  0  0  0  0
   23.0660   63.6200   31.9270 C   0  0  0  0  0  0  0  0  0  0  0  0
   23.6570   63.2880   33.2700 C   0  0  0  0  0  0  0  0  0  0  0  0
   23.6420   61.9670   33.7400 C   0  0  0  0  0  0  0  0  0  0  0  0
   24.2220   61.6380   34.9550 C   0  0  0  0  0  0  0  0  0  0  0  0
   24.8380   62.6150   35.7270 C   0  0  0  0  0  0  0  0  0  0  0  0
   24.8500   63.9280   35.2750 C   0  0  0  0  0  0  0  0  0  0  0  0
   24.2620   64.2580   34.0680 C   0  0  0  0  0  0  0  0  0  0  0  0
  1  2  1  0  0  0  0
  2 11  2  0  0  0  0
  2  3  1  0  0  0  0
  3  4  1  0  0  0  0
  5  4  1  0  0  0  0
  6  8  1  0  0  0  0
  6  5  1  0  0  0  0
  7  6  1  0  0  0  0
  9  6  1  0  0  0  0
 10  9  1  0  0  0  0
 10  3  1  0  0  0  0
 12 13  1  0  0  0  0
 12 11  2  0  0  0  0
 14 13  1  0  0  0  0
 15 14  2  0  0  0  0
 16 15  1  0  0  0  0
 16 17  2  0  0  0  0
 17  1  1  0  0  0  0
 17 12  1  0  0  0  0
 18  1  1  0  0  0  0
 18 19  1  0  0  0  0
 19 20  2  0  0  0  0
 19 24  1  0  0  0  0
 20 21  1  0  0  0  0
 21 22  2  0  0  0  0
 23 22  1  0  0  0  0
 24 23  2  0  0  0  0
M  END
>  <minimizedAffinity>
-7.76998711

$$$$

 OpenBabel12271915183D

 24 27  0  0  0  0  0  0  0  0999 V2000
   21.0800   64.3730   33.2660 N   0  0  0  0  0  0  0  0  0  0  0  0
   20.7470   65.3730   32.3760 C   0  0  0  0  0  0  0  0  0  0  0  0
   19.4740   65.9040   32.2380 N   0  0  0  0  0  0  0  0  0  0  0  0
   19.3960   67.3660   32.3780 C   0  0  0  0  0  0  0  0  0  0  0  0
   19.3860   68.0560   30.9950 C   0  0  0  0  0  0  0  0  0  0  0  0
   18.3320   67.4950   30.0850 N   0  0  0  0  0  0  0  0  0  0  0  0
   18.7860   67.1580   29.2190 H   0  0  0  0  0  0  0  0  0  0  0  0
   17.6930   68.2560   29.8290 H   0  0  0  0  0  0  0  0  0  0  0  0
   17.5390   66.3890   30.6990 C   0  0  0  0  0  0  0  0  0  0  0  0
   18.4570   65.3110   31.3480 C   0  0  0  0  0  0  0  0  0  0  0  0
   21.8410   65.8780   31.8640 N   0  0  0  0  0  0  0  0  0  0  0  0
   22.9120   65.2930   32.5000 C   0  0  0  0  0  0  0  0  0  0  0  0
   24.2890   65.5370   32.4110 C   0  0  0  0  0  0  0  0  0  0  0  0
   25.1650   64.8140   33.2230 C   0  0  0  0  0  0  0  0  0  0  0  0
   24.6900   63.8810   34.1230 C   0  0  0  0  0  0  0  0  0  0  0  0
   23.3240   63.6500   34.2210 C   0  0  0  0  0  0  0  0  0  0  0  0
   22.4580   64.3560   33.3900 C   0  0  0  0  0  0  0  0  0  0  0  0
   20.1840   63.6630   34.1480 C   0  0  0  0  0  0  0  0  0  0  0  0
   19.6410   62.3790   33.5830 C   0  0  0  0  0  0  0  0  0  0  0  0
   18.2960   62.2900   33.2000 C   0  0  0  0  0  0  0  0  0  0  0  0
   17.7920   61.1290   32.6350 C   0  0  0  0  0  0  0  0  0  0  0  0
   18.6180   60.0310   32.4310 C   0  0  0  0  0  0  0  0  0  0  0  0
   19.9510   60.1060   32.8150 C   0  0  0  0  0  0  0  0  0  0  0  0
   20.4510   61.2610   33.3880 C   0  0  0  0  0  0  0  0  0  0  0  0
  1 17  1  0  0  0  0
  1 18  1  0  0  0  0
  2  1  1  0  0  0  0
  3  2  1  0  0  0  0
  3  4  1  0  0  0  0
  5  4  1  0  0  0  0
  6  9  1  0  0  0  0
  6  5  1  0  0  0  0
  7  6  1  0  0  0  0
  8  6  1  0  0  0  0
  9 10  1  0  0  0  0
 10  3  1  0  0  0  0
 11  2  2  0  0  0  0
 11 12  2  0  0  0  0
 12 17  1  0  0  0  0
 13 12  1  0  0  0  0
 13 14  1  0  0  0  0
 14 15  2  0  0  0  0
 15 16  1  0  0  0  0
 17 16  2  0  0  0  0
 19 18  1  0  0  0  0
 20 19  2  0  0  0  0
 21 20  1  0  0  0  0
 22 21  2  0  0  0  0
 22 23  1  0  0  0  0
 23 24  2  0  0  0  0
 24 19  1  0  0  0  0
M  END
>  <minimizedAffinity>
-7.72311544

$$$$

 OpenBabel12271915183D

 24 27  0  0  0  0  0  0  0  0999 V2000
   21.2060   64.4550   32.4250 N   0  0  0  0  0  0  0  0  0  0  0  0
   20.6120   63.2810   32.8360 C   0  0  0  0  0  0  0  0  0  0  0  0
   19.5220   62.6960   32.2110 N   0  0  0  0  0  0  0  0  0  0  0  0
   19.7190   61.2940   31.8100 C   0  0  0  0  0  0  0  0  0  0  0  0
   19.1150   60.3280   32.8550 C   0  0  0  0  0  0  0  0  0  0  0  0
   17.6850   60.6530   33.1730 N   0  0  0  0  0  0  0  0  0  0  0  0
   17.6000   60.8130   34.1910 H   0  0  0  0  0  0  0  0  0  0  0  0
   17.1100   59.8370   32.9350 H   0  0  0  0  0  0  0  0  0  0  0  0
   17.1630   61.8400   32.4330 C   0  0  0  0  0  0  0  0  0  0  0  0
   18.1290   63.0580   32.5370 C   0  0  0  0  0  0  0  0  0  0  0  0
   21.3630   62.7120   33.7450 N   0  0  0  0  0  0  0  0  0  0  0  0
   22.5190   63.4490   33.8570 C   0  0  0  0  0  0  0  0  0  0  0  0
   23.6890   63.2320   34.5980 C   0  0  0  0  0  0  0  0  0  0  0  0
   24.7480   64.1360   34.4840 C   0  0  0  0  0  0  0  0  0  0  0  0
   24.6630   65.2230   33.6370 C   0  0  0  0  0  0  0  0  0  0  0  0
   23.5090   65.4290   32.8920 C   0  0  0  0  0  0  0  0  0  0  0  0
   22.4480   64.5390   33.0290 C   0  0  0  0  0  0  0  0  0  0  0  0
   20.7810   65.3090   31.3390 C   0  0  0  0  0  0  0  0  0  0  0  0
   20.1090   66.5820   31.7760 C   0  0  0  0  0  0  0  0  0  0  0  0
   20.8470   67.7690   31.8820 C   0  0  0  0  0  0  0  0  0  0  0  0
   20.2330   68.9590   32.2390 C   0  0  0  0  0  0  0  0  0  0  0  0
   18.8680   68.9980   32.4910 C   0  0  0  0  0  0  0  0  0  0  0  0
   18.1290   67.8250   32.3980 C   0  0  0  0  0  0  0  0  0  0  0  0
   18.7440   66.6360   32.0520 C   0  0  0  0  0  0  0  0  0  0  0  0
  1  2  1  0  0  0  0
  1 17  1  0  0  0  0
  2 11  2  0  0  0  0
  3 10  1  0  0  0  0
  3  2  1  0  0  0  0
  4  3  1  0  0  0  0
  4  5  1  0  0  0  0
  5  6  1  0  0  0  0
  6  7  1  0  0  0  0
  8  6  1  0  0  0  0
  9 10  1  0  0  0  0
  9  6  1  0  0  0  0
 11 12  2  0  0  0  0
 12 13  1  0  0  0  0
 14 13  1  0  0  0  0
 15 14  2  0  0  0  0
 16 17  2  0  0  0  0
 16 15  1  0  0  0  0
 17 12  1  0  0  0  0
 18 19  1  0  0  0  0
 18  1  1  0  0  0  0
 19 20  2  0  0  0  0
 19 24  1  0  0  0  0
 20 21  1  0  0  0  0
 21 22  2  0  0  0  0
 23 22  1  0  0  0  0
 24 23  2  0  0  0  0
M  END
>  <minimizedAffinity>
-7.51637602

$$$$

 OpenBabel12271915183D

 24 27  0  0  0  0  0  0  0  0999 V2000
   19.2220   62.4730   32.0700 N   0  0  0  0  0  0  0  0  0  0  0  0
   18.4150   63.5900   32.1350 C   0  0  0  0  0  0  0  0  0  0  0  0
   18.7790   64.8450   31.6740 N   0  0  0  0  0  0  0  0  0  0  0  0
   17.8430   65.4460   30.7110 C   0  0  0  0  0  0  0  0  0  0  0  0
   16.8850   66.4350   31.4130 C   0  0  0  0  0  0  0  0  0  0  0  0
   17.6190   67.4560   32.2330 N   0  0  0  0  0  0  0  0  0  0  0  0
   17.2780   67.4050   33.2080 H   0  0  0  0  0  0  0  0  0  0  0  0
   17.3880   68.3860   31.8680 H   0  0  0  0  0  0  0  0  0  0  0  0
   19.1020   67.2860   32.2110 C   0  0  0  0  0  0  0  0  0  0  0  0
   19.5200   65.8140   32.5050 C   0  0  0  0  0  0  0  0  0  0  0  0
   17.2060   63.2290   32.4830 N   0  0  0  0  0  0  0  0  0  0  0  0
   17.1760   61.8550   32.5380 C   0  0  0  0  0  0  0  0  0  0  0  0
   16.1210   60.9580   32.7580 C   0  0  0  0  0  0  0  0  0  0  0  0
   16.3710   59.5850   32.7110 C   0  0  0  0  0  0  0  0  0  0  0  0
   17.6350   59.1030   32.4300 C   0  0  0  0  0  0  0  0  0  0  0  0
   18.6750   59.9930   32.1970 C   0  0  0  0  0  0  0  0  0  0  0  0
   18.4260   61.3600   32.2710 C   0  0  0  0  0  0  0  0  0  0  0  0
   20.5820   62.4130   31.5870 C   0  0  0  0  0  0  0  0  0  0  0  0
   21.6290   62.5090   32.6630 C   0  0  0  0  0  0  0  0  0  0  0  0
   21.8100   61.4530   33.5680 C   0  0  0  0  0  0  0  0  0  0  0  0
   22.8010   61.5080   34.5350 C   0  0  0  0  0  0  0  0  0  0  0  0
   23.6400   62.6110   34.6210 C   0  0  0  0  0  0  0  0  0  0  0  0
   23.4640   63.6660   33.7350 C   0  0  0  0  0  0  0  0  0  0  0  0
   22.4690   63.6160   32.7760 C   0  0  0  0  0  0  0  0  0  0  0  0
  1  2  1  0  0  0  0
  1 17  1  0  0  0  0
  2 11  2  0  0  0  0
  3  2  1  0  0  0  0
  3 10  1  0  0  0  0
  4  5  1  0  0  0  0
  4  3  1  0  0  0  0
  5  6  1  0  0  0  0
  6  7  1  0  0  0  0
  8  6  1  0  0  0  0
  9  6  1  0  0  0  0
  9 10  1  0  0  0  0
 11 12  2  0  0  0  0
 12 13  1  0  0  0  0
 14 13  1  0  0  0  0
 15 14  2  0  0  0  0
 16 17  2  0  0  0  0
 16 15  1  0  0  0  0
 17 12  1  0  0  0  0
 18  1  1  0  0  0  0
 18 19  1  0  0  0  0
 19 24  2  0  0  0  0
 19 20  1  0  0  0  0
 20 21  2  0  0  0  0
 21 22  1  0  0  0  0
 23 22  2  0  0  0  0
 24 23  1  0  0  0  0
M  END
>  <minimizedAffinity>
-7.34793186

$$$$

 OpenBabel12271915183D

 24 27  0  0  0  0  0  0  0  0999 V2000
   21.1050   65.7210   32.1020 N   0  0  0  0  0  0  0  0  0  0  0  0
   19.9280   66.4050   31.8810 C   0  0  0  0  0  0  0  0  0  0  0  0
   19.8580   67.7400   31.5160 N   0  0  0  0  0  0  0  0  0  0  0  0
   19.0830   68.0070   30.2940 C   0  0  0  0  0  0  0  0  0  0  0  0
   17.6430   68.4510   30.6370 C   0  0  0  0  0  0  0  0  0  0  0  0
   17.6140   69.5920   31.6110 N   0  0  0  0  0  0  0  0  0  0  0  0
   17.0560   69.3110   32.4360 H   0  0  0  0  0  0  0  0  0  0  0  0
   17.1370   70.3830   31.1650 H   0  0  0  0  0  0  0  0  0  0  0  0
   18.9690   70.0370   32.0510 C   0  0  0  0  0  0  0  0  0  0  0  0
   19.8530   68.8360   32.5040 C   0  0  0  0  0  0  0  0  0  0  0  0
   18.9330   65.5550   31.8520 N   0  0  0  0  0  0  0  0  0  0  0  0
   19.4600   64.2870   31.9370 C   0  0  0  0  0  0  0  0  0  0  0  0
   18.8570   63.0250   31.8500 C   0  0  0  0  0  0  0  0  0  0  0  0
   19.6540   61.8810   31.9240 C   0  0  0  0  0  0  0  0  0  0  0  0
   21.0250   61.9790   32.0590 C   0  0  0  0  0  0  0  0  0  0  0  0
   21.6220   63.2310   32.1300 C   0  0  0  0  0  0  0  0  0  0  0  0
   20.8200   64.3670   32.0820 C   0  0  0  0  0  0  0  0  0  0  0  0
   22.4440   66.2620   32.0620 C   0  0  0  0  0  0  0  0  0  0  0  0
   23.5110   65.3180   32.5450 C   0  0  0  0  0  0  0  0  0  0  0  0
   24.4390   64.7800   31.6430 C   0  0  0  0  0  0  0  0  0  0  0  0
   25.4550   63.9450   32.0800 C   0  0  0  0  0  0  0  0  0  0  0  0
   25.5760   63.6310   33.4270 C   0  0  0  0  0  0  0  0  0  0  0  0
   24.6560   64.1510   34.3290 C   0  0  0  0  0  0  0  0  0  0  0  0
   23.6360   64.9760   33.8910 C   0  0  0  0  0  0  0  0  0  0  0  0
  2  1  1  0  0  0  0
  3  2  1  0  0  0  0
  3 10  1  0  0  0  0
  4  5  1  0  0  0  0
  4  3  1  0  0  0  0
  5  6  1  0  0  0  0
  6  9  1  0  0  0  0
  6  7  1  0  0  0  0
  8  6  1  0  0  0  0
  9 10  1  0  0  0  0
 11  2  2  0  0  0  0
 11 12  2  0  0  0  0
 12 17  1  0  0  0  0
 13 14  1  0  0  0  0
 13 12  1  0  0  0  0
 14 15  2  0  0  0  0
 15 16  1  0  0  0  0
 17  1  1  0  0  0  0
 17 16  2  0  0  0  0
 18  1  1  0  0  0  0
 18 19  1  0  0  0  0
 19 24  2  0  0  0  0
 20 21  2  0  0  0  0
 20 19  1  0  0  0  0
 21 22  1  0  0  0  0
 22 23  2  0  0  0  0
 24 23  1  0  0  0  0
M  END
>  <minimizedAffinity>
-7.21902084

$$$$

 OpenBabel12271915183D

 24 27  0  0  0  0  0  0  0  0999 V2000
   19.1140   64.1250   32.4050 N   0  0  0  0  0  0  0  0  0  0  0  0
   18.1890   63.2090   32.8590 C   0  0  0  0  0  0  0  0  0  0  0  0
   16.9400   63.0110   32.2890 N   0  0  0  0  0  0  0  0  0  0  0  0
   16.6510   61.6220   31.9010 C   0  0  0  0  0  0  0  0  0  0  0  0
   15.8130   60.9060   32.9850 C   0  0  0  0  0  0  0  0  0  0  0  0
   14.5830   61.6790   33.3590 N   0  0  0  0  0  0  0  0  0  0  0  0
   14.6010   61.8580   34.3780 H   0  0  0  0  0  0  0  0  0  0  0  0
   13.7640   61.0960   33.1580 H   0  0  0  0  0  0  0  0  0  0  0  0
   14.4430   62.9720   32.6250 C   0  0  0  0  0  0  0  0  0  0  0  0
   15.7570   63.8080   32.6700 C   0  0  0  0  0  0  0  0  0  0  0  0
   18.7540   62.4260   33.7430 N   0  0  0  0  0  0  0  0  0  0  0  0
   20.0910   62.7450   33.7940 C   0  0  0  0  0  0  0  0  0  0  0  0
   21.1590   62.1580   34.4870 C   0  0  0  0  0  0  0  0  0  0  0  0
   22.4470   62.6670   34.3140 C   0  0  0  0  0  0  0  0  0  0  0  0
   22.6830   63.7230   33.4560 C   0  0  0  0  0  0  0  0  0  0  0  0
   21.6270   64.2940   32.7580 C   0  0  0  0  0  0  0  0  0  0  0  0
   20.3410   63.7990   32.9540 C   0  0  0  0  0  0  0  0  0  0  0  0
   18.9410   65.0710   31.3260 C   0  0  0  0  0  0  0  0  0  0  0  0
   18.9250   66.5110   31.7590 C   0  0  0  0  0  0  0  0  0  0  0  0
   20.1040   67.2700   31.7290 C   0  0  0  0  0  0  0  0  0  0  0  0
   20.0960   68.6110   32.0810 C   0  0  0  0  0  0  0  0  0  0  0  0
   18.9130   69.2300   32.4650 C   0  0  0  0  0  0  0  0  0  0  0  0
   17.7410   68.4850   32.5070 C   0  0  0  0  0  0  0  0  0  0  0  0
   17.7520   67.1450   32.1650 C   0  0  0  0  0  0  0  0  0  0  0  0
  1  2  1  0  0  0  0
  1 17  1  0  0  0  0
  2 11  2  0  0  0  0
  3 10  1  0  0  0  0
  3  2  1  0  0  0  0
  4  3  1  0  0  0  0
  4  5  1  0  0  0  0
  5  6  1  0  0  0  0
  6  7  1  0  0  0  0
  8  6  1  0  0  0  0
  9 10  1  0  0  0  0
  9  6  1  0  0  0  0
 11 12  2  0  0  0  0
 12 13  1  0  0  0  0
 14 13  1  0  0  0  0
 15 14  2  0  0  0  0
 16 17  2  0  0  0  0
 16 15  1  0  0  0  0
 17 12  1  0  0  0  0
 18 19  1  0  0  0  0
 18  1  1  0  0  0  0
 19 24  1  0  0  0  0
 20 19  2  0  0  0  0
 20 21  1  0  0  0  0
 21 22  2  0  0  0  0
 22 23  1  0  0  0  0
 24 23  2  0  0  0  0
M  END
>  <minimizedAffinity>
-7.06073236

$$$$

 OpenBabel12271915183D

 24 27  0  0  0  0  0  0  0  0999 V2000
   20.7030   65.9320   32.3010 N   0  0  0  0  0  0  0  0  0  0  0  0
   20.2120   67.1050   31.7680 C   0  0  0  0  0  0  0  0  0  0  0  0
   18.8910   67.5160   31.8660 N   0  0  0  0  0  0  0  0  0  0  0  0
   18.7010   68.8580   32.4370 C   0  0  0  0  0  0  0  0  0  0  0  0
   18.5150   69.9130   31.3230 C   0  0  0  0  0  0  0  0  0  0  0  0
   17.4390   69.5320   30.3500 N   0  0  0  0  0  0  0  0  0  0  0  0
   17.8440   69.5100   29.3990 H   0  0  0  0  0  0  0  0  0  0  0  0
   16.7180   70.2620   30.3670 H   0  0  0  0  0  0  0  0  0  0  0  0
   16.7970   68.2180   30.6530 C   0  0  0  0  0  0  0  0  0  0  0  0
   17.8560   67.1010   30.9000 C   0  0  0  0  0  0  0  0  0  0  0  0
   21.2110   67.8500   31.3670 N   0  0  0  0  0  0  0  0  0  0  0  0
   22.3780   67.2230   31.7390 C   0  0  0  0  0  0  0  0  0  0  0  0
   23.7170   67.6270   31.6490 C   0  0  0  0  0  0  0  0  0  0  0  0
   24.7170   66.7970   32.1590 C   0  0  0  0  0  0  0  0  0  0  0  0
   24.4010   65.5980   32.7680 C   0  0  0  0  0  0  0  0  0  0  0  0
   23.0730   65.2060   32.8700 C   0  0  0  0  0  0  0  0  0  0  0  0
   22.0820   66.0260   32.3370 C   0  0  0  0  0  0  0  0  0  0  0  0
   19.9480   64.9060   32.9830 C   0  0  0  0  0  0  0  0  0  0  0  0
   20.3990   63.5020   32.6870 C   0  0  0  0  0  0  0  0  0  0  0  0
   20.8480   62.6720   33.7230 C   0  0  0  0  0  0  0  0  0  0  0  0
   21.2230   61.3610   33.4740 C   0  0  0  0  0  0  0  0  0  0  0  0
   21.1540   60.8430   32.1860 C   0  0  0  0  0  0  0  0  0  0  0  0
   20.7190   61.6610   31.1500 C   0  0  0  0  0  0  0  0  0  0  0  0
   20.3540   62.9710   31.3990 C   0  0  0  0  0  0  0  0  0  0  0  0
  1 17  1  0  0  0  0
  1 18  1  0  0  0  0
  2  3  1  0  0  0  0
  2  1  1  0  0  0  0
  3  4  1  0  0  0  0
  5  4  1  0  0  0  0
  6  8  1  0  0  0  0
  6  9  1  0  0  0  0
  6  5  1  0  0  0  0
  7  6  1  0  0  0  0
  9 10  1  0  0  0  0
 10  3  1  0  0  0  0
 11 12  2  0  0  0  0
 11  2  2  0  0  0  0
 12 17  1  0  0  0  0
 13 12  1  0  0  0  0
 13 14  1  0  0  0  0
 14 15  2  0  0  0  0
 15 16  1  0  0  0  0
 17 16  2  0  0  0  0
 19 18  1  0  0  0  0
 19 20  2  0  0  0  0
 21 20  1  0  0  0  0
 22 21  2  0  0  0  0
 23 24  2  0  0  0  0
 23 22  1  0  0  0  0
 24 19  1  0  0  0  0
M  END
>  <minimizedAffinity>
-7.04274321

$$$$
