
 OpenBabel12271915233D

 30 33  0  0  1  0  0  0  0  0999 V2000
   21.7580   62.0350   32.6120 C   0  0  1  0  0  0  0  0  0  0  0  0
   21.3110   61.8330   33.9840 N   0  0  0  0  0  0  0  0  0  0  0  0
   21.1280   62.7400   34.4410 H   0  0  0  0  0  0  0  0  0  0  0  0
   20.0650   61.1730   33.9460 O   0  0  0  0  0  0  0  0  0  0  0  0
   19.4830   61.3400   32.6540 C   0  0  2  0  0  0  0  0  0  0  0  0
   18.1550   62.1050   32.7890 C   0  0  1  0  0  0  0  0  0  0  0  0
   16.8960   61.3490   32.3760 C   0  0  2  0  0  0  0  0  0  0  0  0
   17.0010   59.8150   32.4080 C   0  0  1  0  0  0  0  0  0  0  0  0
   18.3500   59.3640   32.9310 C   0  0  2  0  0  0  0  0  0  0  0  0
   19.3340   60.0260   32.1410 O   0  0  0  0  0  0  0  0  0  0  0  0
   20.4950   62.0590   31.7850 C   0  0  0  0  0  0  0  0  0  0  0  0
   22.5410   63.3160   32.4770 C   0  0  0  0  0  0  0  0  0  0  0  0
   23.9350   63.3270   32.5540 C   0  0  0  0  0  0  0  0  0  0  0  0
   24.6670   64.4870   32.4180 C   0  0  0  0  0  0  0  0  0  0  0  0
   24.0070   65.7000   32.2140 C   0  0  0  0  0  0  0  0  0  0  0  0
   24.7200   66.8790   32.0760 C   0  0  0  0  0  0  0  0  0  0  0  0
   24.0550   68.0820   31.8870 C   0  0  0  0  0  0  0  0  0  0  0  0
   22.6710   68.1050   31.8200 C   0  0  0  0  0  0  0  0  0  0  0  0
   21.9440   66.9390   31.9460 C   0  0  0  0  0  0  0  0  0  0  0  0
   22.6010   65.7170   32.1520 C   0  0  0  0  0  0  0  0  0  0  0  0
   21.8870   64.5370   32.2810 C   0  0  0  0  0  0  0  0  0  0  0  0
   16.5010   61.7750   31.0700 O   0  0  0  0  0  0  0  0  0  0  0  0
   16.2300   62.7220   31.1270 H   0  0  0  0  0  0  0  0  0  0  0  0
   17.9860   62.6500   34.1010 O   0  0  0  0  0  0  0  0  0  0  0  0
   17.6070   61.9780   34.7040 H   0  0  0  0  0  0  0  0  0  0  0  0
   15.9580   59.2630   33.1990 O   0  0  0  0  0  0  0  0  0  0  0  0
   16.1780   59.3140   34.1480 H   0  0  0  0  0  0  0  0  0  0  0  0
   18.5810   57.8490   32.9170 C   0  0  0  0  0  0  0  0  0  0  0  0
   19.9460   57.6380   32.5530 O   0  0  0  0  0  0  0  0  0  0  0  0
   20.1860   58.2700   31.8380 H   0  0  0  0  0  0  0  0  0  0  0  0
  1 12  1  1  0  0  0
  1  2  1  0  0  0  0
  2  3  1  0  0  0  0
  4  2  1  0  0  0  0
  5 11  1  6  0  0  0
  5  4  1  0  0  0  0
  6  5  1  1  0  0  0
  6 24  1  0  0  0  0
  7 22  1  6  0  0  0
  7  8  1  0  0  0  0
  7  6  1  0  0  0  0
  8  9  1  0  0  0  0
  8 26  1  1  0  0  0
  9 28  1  6  0  0  0
 10  5  1  0  0  0  0
 10  9  1  0  0  0  0
 11  1  1  0  0  0  0
 12 13  1  0  0  0  0
 14 13  2  0  0  0  0
 15 14  1  0  0  0  0
 16 15  2  0  0  0  0
 17 16  1  0  0  0  0
 18 17  2  0  0  0  0
 18 19  1  0  0  0  0
 19 20  2  0  0  0  0
 20 15  1  0  0  0  0
 20 21  1  0  0  0  0
 21 12  2  0  0  0  0
 22 23  1  0  0  0  0
 24 25  1  0  0  0  0
 26 27  1  0  0  0  0
 29 28  1  0  0  0  0
 30 29  1  0  0  0  0
M  END
>  <minimizedAffinity>
-9.84350777

$$$$

 OpenBabel12271915233D

 30 33  0  0  1  0  0  0  0  0999 V2000
   20.2280   61.6620   34.1110 C   0  0  1  0  0  0  0  0  0  0  0  0
   19.6320   62.7680   34.8510 N   0  0  0  0  0  0  0  0  0  0  0  0
   20.1410   63.6450   34.6600 H   0  0  0  0  0  0  0  0  0  0  0  0
   18.3280   62.9740   34.3530 O   0  0  0  0  0  0  0  0  0  0  0  0
   18.2190   62.3800   33.0600 C   0  0  2  0  0  0  0  0  0  0  0  0
   17.9100   63.4720   32.0220 C   0  0  1  0  0  0  0  0  0  0  0  0
   16.5680   63.3620   31.3040 C   0  0  2  0  0  0  0  0  0  0  0  0
   15.4840   62.5610   32.0430 C   0  0  1  0  0  0  0  0  0  0  0  0
   15.9670   62.0990   33.4030 C   0  0  2  0  0  0  0  0  0  0  0  0
   17.1930   61.4080   33.1840 O   0  0  0  0  0  0  0  0  0  0  0  0
   19.5150   61.6470   32.7800 C   0  0  0  0  0  0  0  0  0  0  0  0
   21.7150   61.8560   33.9480 C   0  0  0  0  0  0  0  0  0  0  0  0
   22.6300   61.1230   34.7070 C   0  0  0  0  0  0  0  0  0  0  0  0
   23.9920   61.2770   34.5600 C   0  0  0  0  0  0  0  0  0  0  0  0
   24.4870   62.2030   33.6400 C   0  0  0  0  0  0  0  0  0  0  0  0
   25.8510   62.3760   33.4750 C   0  0  0  0  0  0  0  0  0  0  0  0
   26.3340   63.3080   32.5670 C   0  0  0  0  0  0  0  0  0  0  0  0
   25.4500   64.0600   31.8100 C   0  0  0  0  0  0  0  0  0  0  0  0
   24.0880   63.8950   31.9540 C   0  0  0  0  0  0  0  0  0  0  0  0
   23.5840   62.9670   32.8770 C   0  0  0  0  0  0  0  0  0  0  0  0
   22.2190   62.7870   33.0350 C   0  0  0  0  0  0  0  0  0  0  0  0
   16.7760   62.8030   30.0050 O   0  0  0  0  0  0  0  0  0  0  0  0
   17.3020   63.4490   29.4760 H   0  0  0  0  0  0  0  0  0  0  0  0
   18.0610   64.7850   32.5700 O   0  0  0  0  0  0  0  0  0  0  0  0
   17.2430   65.0590   33.0330 H   0  0  0  0  0  0  0  0  0  0  0  0
   14.3010   63.3360   32.1790 O   0  0  0  0  0  0  0  0  0  0  0  0
   14.3760   63.9550   32.9290 H   0  0  0  0  0  0  0  0  0  0  0  0
   14.9840   61.2150   34.1780 C   0  0  0  0  0  0  0  0  0  0  0  0
   14.0630   60.6790   33.2270 O   0  0  0  0  0  0  0  0  0  0  0  0
   13.8270   61.3820   32.5800 H   0  0  0  0  0  0  0  0  0  0  0  0
  1 12  1  6  0  0  0
  1  2  1  0  0  0  0
  3  2  1  0  0  0  0
  4  2  1  0  0  0  0
  5 11  1  6  0  0  0
  5 10  1  0  0  0  0
  5  4  1  0  0  0  0
  6 24  1  0  0  0  0
  6  5  1  1  0  0  0
  7 22  1  6  0  0  0
  7  6  1  0  0  0  0
  7  8  1  0  0  0  0
  8 26  1  1  0  0  0
  8  9  1  0  0  0  0
  9 28  1  6  0  0  0
 10  9  1  0  0  0  0
 11  1  1  0  0  0  0
 12 13  2  0  0  0  0
 14 13  1  0  0  0  0
 15 14  2  0  0  0  0
 16 15  1  0  0  0  0
 17 16  2  0  0  0  0
 18 19  2  0  0  0  0
 18 17  1  0  0  0  0
 19 20  1  0  0  0  0
 20 21  2  0  0  0  0
 20 15  1  0  0  0  0
 21 12  1  0  0  0  0
 23 22  1  0  0  0  0
 24 25  1  0  0  0  0
 26 27  1  0  0  0  0
 29 28  1  0  0  0  0
 30 29  1  0  0  0  0
M  END
>  <minimizedAffinity>
-9.28831959

$$$$

 OpenBabel12271915233D

 30 33  0  0  1  0  0  0  0  0999 V2000
   19.6400   63.4100   33.3580 C   0  0  1  0  0  0  0  0  0  0  0  0
   19.2430   63.5020   31.9590 N   0  0  0  0  0  0  0  0  0  0  0  0
   19.7970   62.8480   31.3830 H   0  0  0  0  0  0  0  0  0  0  0  0
   17.9080   63.0600   31.8520 O   0  0  0  0  0  0  0  0  0  0  0  0
   17.5780   62.2780   32.9990 C   0  0  2  0  0  0  0  0  0  0  0  0
   17.2310   60.8460   32.5570 C   0  0  1  0  0  0  0  0  0  0  0  0
   15.8020   60.3840   32.8250 C   0  0  2  0  0  0  0  0  0  0  0  0
   14.7590   61.5040   32.9750 C   0  0  1  0  0  0  0  0  0  0  0  0
   15.3750   62.8690   32.7430 C   0  0  2  0  0  0  0  0  0  0  0  0
   16.4990   62.9600   33.6160 O   0  0  0  0  0  0  0  0  0  0  0  0
   18.7590   62.3340   33.9480 C   0  0  0  0  0  0  0  0  0  0  0  0
   21.1030   63.0690   33.4880 C   0  0  0  0  0  0  0  0  0  0  0  0
   21.5390   62.0570   34.3460 C   0  0  0  0  0  0  0  0  0  0  0  0
   22.8710   61.7230   34.4660 C   0  0  0  0  0  0  0  0  0  0  0  0
   23.8270   62.4210   33.7260 C   0  0  0  0  0  0  0  0  0  0  0  0
   25.1720   62.1040   33.8300 C   0  0  0  0  0  0  0  0  0  0  0  0
   26.1170   62.8120   33.1000 C   0  0  0  0  0  0  0  0  0  0  0  0
   25.7150   63.8310   32.2510 C   0  0  0  0  0  0  0  0  0  0  0  0
   24.3790   64.1540   32.1270 C   0  0  0  0  0  0  0  0  0  0  0  0
   23.4140   63.4570   32.8690 C   0  0  0  0  0  0  0  0  0  0  0  0
   22.0680   63.7680   32.7570 C   0  0  0  0  0  0  0  0  0  0  0  0
   15.7880   59.5570   33.9910 O   0  0  0  0  0  0  0  0  0  0  0  0
   16.2930   58.7340   33.7870 H   0  0  0  0  0  0  0  0  0  0  0  0
   17.5660   60.6170   31.1850 O   0  0  0  0  0  0  0  0  0  0  0  0
   16.8420   60.9230   30.6000 H   0  0  0  0  0  0  0  0  0  0  0  0
   13.6760   61.2960   32.0800 O   0  0  0  0  0  0  0  0  0  0  0  0
   13.9030   61.6060   31.1830 H   0  0  0  0  0  0  0  0  0  0  0  0
   14.4310   64.0570   32.9590 C   0  0  0  0  0  0  0  0  0  0  0  0
   13.6740   64.2120   31.7580 O   0  0  0  0  0  0  0  0  0  0  0  0
   14.2700   64.0750   30.9860 H   0  0  0  0  0  0  0  0  0  0  0  0
  1 12  1  6  0  0  0
  1 11  1  0  0  0  0
  2  1  1  0  0  0  0
  3  2  1  0  0  0  0
  4  2  1  0  0  0  0
  4  5  1  0  0  0  0
  5 10  1  0  0  0  0
  5 11  1  1  0  0  0
  6  7  1  0  0  0  0
  6  5  1  6  0  0  0
  7  8  1  0  0  0  0
  7 22  1  1  0  0  0
  8 26  1  6  0  0  0
  9 28  1  1  0  0  0
  9  8  1  0  0  0  0
  9 10  1  0  0  0  0
 12 13  2  0  0  0  0
 13 14  1  0  0  0  0
 15 16  1  0  0  0  0
 15 14  2  0  0  0  0
 17 16  2  0  0  0  0
 18 17  1  0  0  0  0
 19 18  2  0  0  0  0
 19 20  1  0  0  0  0
 20 15  1  0  0  0  0
 21 20  2  0  0  0  0
 21 12  1  0  0  0  0
 23 22  1  0  0  0  0
 24  6  1  0  0  0  0
 25 24  1  0  0  0  0
 27 26  1  0  0  0  0
 29 28  1  0  0  0  0
 30 29  1  0  0  0  0
M  END
>  <minimizedAffinity>
-9.22003937

$$$$

 OpenBabel12271915233D

 30 33  0  0  1  0  0  0  0  0999 V2000
   19.8950   68.0100   31.4110 C   0  0  1  0  0  0  0  0  0  0  0  0
   19.6900   67.9840   29.9680 N   0  0  0  0  0  0  0  0  0  0  0  0
   19.7340   67.0150   29.6140 H   0  0  0  0  0  0  0  0  0  0  0  0
   18.3760   68.4220   29.7040 O   0  0  0  0  0  0  0  0  0  0  0  0
   17.5910   68.2960   30.8900 C   0  0  2  0  0  0  0  0  0  0  0  0
   16.4420   67.3060   30.6370 C   0  0  1  0  0  0  0  0  0  0  0  0
   15.0290   67.8750   30.7240 C   0  0  2  0  0  0  0  0  0  0  0  0
   14.9090   69.3910   30.5020 C   0  0  1  0  0  0  0  0  0  0  0  0
   16.2490   70.0080   30.1580 C   0  0  2  0  0  0  0  0  0  0  0  0
   17.1530   69.6120   31.1860 O   0  0  0  0  0  0  0  0  0  0  0  0
   18.5160   67.8570   32.0070 C   0  0  0  0  0  0  0  0  0  0  0  0
   20.8200   66.9020   31.8490 C   0  0  0  0  0  0  0  0  0  0  0  0
   20.3250   65.6660   32.2700 C   0  0  0  0  0  0  0  0  0  0  0  0
   21.1580   64.6390   32.6590 C   0  0  0  0  0  0  0  0  0  0  0  0
   22.5400   64.8310   32.6560 C   0  0  0  0  0  0  0  0  0  0  0  0
   23.3970   63.8150   33.0440 C   0  0  0  0  0  0  0  0  0  0  0  0
   24.7690   64.0190   33.0500 C   0  0  0  0  0  0  0  0  0  0  0  0
   25.2890   65.2400   32.6520 C   0  0  0  0  0  0  0  0  0  0  0  0
   24.4520   66.2620   32.2530 C   0  0  0  0  0  0  0  0  0  0  0  0
   23.0620   66.0750   32.2550 C   0  0  0  0  0  0  0  0  0  0  0  0
   22.2060   67.0900   31.8570 C   0  0  0  0  0  0  0  0  0  0  0  0
   14.4620   67.5300   31.9900 O   0  0  0  0  0  0  0  0  0  0  0  0
   14.3500   66.5490   32.0170 H   0  0  0  0  0  0  0  0  0  0  0  0
   16.6070   66.6030   29.4020 O   0  0  0  0  0  0  0  0  0  0  0  0
   16.2530   67.1320   28.6570 H   0  0  0  0  0  0  0  0  0  0  0  0
   13.9630   69.6690   29.4780 O   0  0  0  0  0  0  0  0  0  0  0  0
   14.3640   69.5560   28.5960 H   0  0  0  0  0  0  0  0  0  0  0  0
   16.2450   71.5340   30.0060 C   0  0  0  0  0  0  0  0  0  0  0  0
   15.9610   71.8160   28.6340 O   0  0  0  0  0  0  0  0  0  0  0  0
   16.4510   71.1750   28.0700 H   0  0  0  0  0  0  0  0  0  0  0  0
  1 12  1  1  0  0  0
  1 11  1  0  0  0  0
  2  1  1  0  0  0  0
  3  2  1  0  0  0  0
  4  2  1  0  0  0  0
  4  5  1  0  0  0  0
  5 10  1  0  0  0  0
  5 11  1  1  0  0  0
  6  7  1  0  0  0  0
  6  5  1  6  0  0  0
  7 22  1  1  0  0  0
  8 26  1  6  0  0  0
  8  7  1  0  0  0  0
  9 28  1  1  0  0  0
  9  8  1  0  0  0  0
  9 10  1  0  0  0  0
 12 21  2  0  0  0  0
 12 13  1  0  0  0  0
 13 14  2  0  0  0  0
 15 14  1  0  0  0  0
 15 16  2  0  0  0  0
 16 17  1  0  0  0  0
 18 17  2  0  0  0  0
 19 20  2  0  0  0  0
 19 18  1  0  0  0  0
 20 15  1  0  0  0  0
 21 20  1  0  0  0  0
 22 23  1  0  0  0  0
 24  6  1  0  0  0  0
 25 24  1  0  0  0  0
 27 26  1  0  0  0  0
 29 28  1  0  0  0  0
 30 29  1  0  0  0  0
M  END
>  <minimizedAffinity>
-9.11956215

$$$$

 OpenBabel12271915233D

 30 33  0  0  1  0  0  0  0  0999 V2000
   18.6180   63.0810   32.8950 C   0  0  1  0  0  0  0  0  0  0  0  0
   18.2200   62.7810   31.5260 N   0  0  0  0  0  0  0  0  0  0  0  0
   19.0390   62.4930   30.9670 H   0  0  0  0  0  0  0  0  0  0  0  0
   17.3690   61.6560   31.5540 O   0  0  0  0  0  0  0  0  0  0  0  0
   17.5560   60.9550   32.7830 C   0  0  2  0  0  0  0  0  0  0  0  0
   18.0760   59.5380   32.4870 C   0  0  1  0  0  0  0  0  0  0  0  0
   17.1640   58.3850   32.8960 C   0  0  2  0  0  0  0  0  0  0  0  0
   15.6730   58.7330   33.0290 C   0  0  1  0  0  0  0  0  0  0  0  0
   15.4030   60.1730   32.6410 C   0  0  2  0  0  0  0  0  0  0  0  0
   16.2880   60.9750   33.4180 O   0  0  0  0  0  0  0  0  0  0  0  0
   18.5100   61.7690   33.6350 C   0  0  0  0  0  0  0  0  0  0  0  0
   20.0180   63.6390   32.9460 C   0  0  0  0  0  0  0  0  0  0  0  0
   20.3630   64.7990   32.2480 C   0  0  0  0  0  0  0  0  0  0  0  0
   21.6340   65.3300   32.2960 C   0  0  0  0  0  0  0  0  0  0  0  0
   22.6220   64.6910   33.0460 C   0  0  0  0  0  0  0  0  0  0  0  0
   23.9070   65.2050   33.1080 C   0  0  0  0  0  0  0  0  0  0  0  0
   24.8870   64.5550   33.8450 C   0  0  0  0  0  0  0  0  0  0  0  0
   24.5770   63.3950   34.5370 C   0  0  0  0  0  0  0  0  0  0  0  0
   23.3010   62.8730   34.4950 C   0  0  0  0  0  0  0  0  0  0  0  0
   22.3030   63.5100   33.7420 C   0  0  0  0  0  0  0  0  0  0  0  0
   21.0160   63.0000   33.6880 C   0  0  0  0  0  0  0  0  0  0  0  0
   17.6370   57.8270   34.1240 O   0  0  0  0  0  0  0  0  0  0  0  0
   18.5180   57.4150   33.9520 H   0  0  0  0  0  0  0  0  0  0  0  0
   18.4630   59.3890   31.1180 O   0  0  0  0  0  0  0  0  0  0  0  0
   17.6850   59.1690   30.5640 H   0  0  0  0  0  0  0  0  0  0  0  0
   14.8860   57.8550   32.2360 O   0  0  0  0  0  0  0  0  0  0  0  0
   14.8850   58.1390   31.3020 H   0  0  0  0  0  0  0  0  0  0  0  0
   13.9550   60.6390   32.8270 C   0  0  0  0  0  0  0  0  0  0  0  0
   13.2090   60.1360   31.7170 O   0  0  0  0  0  0  0  0  0  0  0  0
   13.7500   60.2300   30.9000 H   0  0  0  0  0  0  0  0  0  0  0  0
  1 12  1  6  0  0  0
  1 11  1  0  0  0  0
  2  4  1  0  0  0  0
  2  1  1  0  0  0  0
  3  2  1  0  0  0  0
  4  5  1  0  0  0  0
  5 10  1  0  0  0  0
  5 11  1  1  0  0  0
  6  5  1  6  0  0  0
  6  7  1  0  0  0  0
  7  8  1  0  0  0  0
  7 22  1  1  0  0  0
  8 26  1  6  0  0  0
  9 28  1  1  0  0  0
  9  8  1  0  0  0  0
  9 10  1  0  0  0  0
 12 21  2  0  0  0  0
 13 14  2  0  0  0  0
 13 12  1  0  0  0  0
 14 15  1  0  0  0  0
 15 16  2  0  0  0  0
 15 20  1  0  0  0  0
 16 17  1  0  0  0  0
 17 18  2  0  0  0  0
 19 18  1  0  0  0  0
 20 19  2  0  0  0  0
 21 20  1  0  0  0  0
 23 22  1  0  0  0  0
 24  6  1  0  0  0  0
 25 24  1  0  0  0  0
 27 26  1  0  0  0  0
 29 28  1  0  0  0  0
 30 29  1  0  0  0  0
M  END
>  <minimizedAffinity>
-9.11427307

$$$$

 OpenBabel12271915233D

 30 33  0  0  1  0  0  0  0  0999 V2000
   21.0440   68.3970   31.3430 C   0  0  1  0  0  0  0  0  0  0  0  0
   20.4780   68.0470   30.0460 N   0  0  0  0  0  0  0  0  0  0  0  0
   20.5000   67.0240   29.9080 H   0  0  0  0  0  0  0  0  0  0  0  0
   19.1120   68.3960   30.0550 O   0  0  0  0  0  0  0  0  0  0  0  0
   18.6690   68.5280   31.4060 C   0  0  2  0  0  0  0  0  0  0  0  0
   17.5690   67.4890   31.6850 C   0  0  1  0  0  0  0  0  0  0  0  0
   16.1870   68.0430   32.0220 C   0  0  2  0  0  0  0  0  0  0  0  0
   15.9040   69.4700   31.5240 C   0  0  1  0  0  0  0  0  0  0  0  0
   17.0630   70.0130   30.7130 C   0  0  2  0  0  0  0  0  0  0  0  0
   18.2270   69.8700   31.5220 O   0  0  0  0  0  0  0  0  0  0  0  0
   19.8790   68.3630   32.3040 C   0  0  0  0  0  0  0  0  0  0  0  0
   22.1290   67.4300   31.7440 C   0  0  0  0  0  0  0  0  0  0  0  0
   23.4770   67.7860   31.6840 C   0  0  0  0  0  0  0  0  0  0  0  0
   24.4810   66.9190   32.0600 C   0  0  0  0  0  0  0  0  0  0  0  0
   24.1550   65.6360   32.5010 C   0  0  0  0  0  0  0  0  0  0  0  0
   25.1450   64.7460   32.8830 C   0  0  0  0  0  0  0  0  0  0  0  0
   24.8130   63.4670   33.3070 C   0  0  0  0  0  0  0  0  0  0  0  0
   23.4840   63.0800   33.3640 C   0  0  0  0  0  0  0  0  0  0  0  0
   22.4830   63.9550   32.9960 C   0  0  0  0  0  0  0  0  0  0  0  0
   22.8030   65.2470   32.5520 C   0  0  0  0  0  0  0  0  0  0  0  0
   21.8110   66.1390   32.1780 C   0  0  0  0  0  0  0  0  0  0  0  0
   15.9920   67.9830   33.4370 O   0  0  0  0  0  0  0  0  0  0  0  0
   15.9620   67.0310   33.7000 H   0  0  0  0  0  0  0  0  0  0  0  0
   17.4620   66.5300   30.6280 O   0  0  0  0  0  0  0  0  0  0  0  0
   16.8910   66.8740   29.9100 H   0  0  0  0  0  0  0  0  0  0  0  0
   14.7100   69.4980   30.7540 O   0  0  0  0  0  0  0  0  0  0  0  0
   14.8790   69.1950   29.8420 H   0  0  0  0  0  0  0  0  0  0  0  0
   16.9090   71.4650   30.2460 C   0  0  0  0  0  0  0  0  0  0  0  0
   16.2520   71.4300   28.9780 O   0  0  0  0  0  0  0  0  0  0  0  0
   16.6200   70.6850   28.4500 H   0  0  0  0  0  0  0  0  0  0  0  0
  1 12  1  1  0  0  0
  1 11  1  0  0  0  0
  2  4  1  0  0  0  0
  2  1  1  0  0  0  0
  3  2  1  0  0  0  0
  4  5  1  0  0  0  0
  5 10  1  0  0  0  0
  5 11  1  1  0  0  0
  6  5  1  6  0  0  0
  6  7  1  0  0  0  0
  7 22  1  1  0  0  0
  8 26  1  6  0  0  0
  8  7  1  0  0  0  0
  9 28  1  1  0  0  0
  9 10  1  0  0  0  0
  9  8  1  0  0  0  0
 12 21  1  0  0  0  0
 13 12  2  0  0  0  0
 13 14  1  0  0  0  0
 14 15  2  0  0  0  0
 15 20  1  0  0  0  0
 15 16  1  0  0  0  0
 16 17  2  0  0  0  0
 17 18  1  0  0  0  0
 19 18  2  0  0  0  0
 20 19  1  0  0  0  0
 21 20  2  0  0  0  0
 22 23  1  0  0  0  0
 24  6  1  0  0  0  0
 25 24  1  0  0  0  0
 27 26  1  0  0  0  0
 29 28  1  0  0  0  0
 30 29  1  0  0  0  0
M  END
>  <minimizedAffinity>
-9.04267883

$$$$

 OpenBabel12271915233D

 30 33  0  0  1  0  0  0  0  0999 V2000
   19.9300   68.1650   31.3280 C   0  0  1  0  0  0  0  0  0  0  0  0
   18.6510   67.6710   30.8340 N   0  0  0  0  0  0  0  0  0  0  0  0
   18.3740   66.8160   31.3400 H   0  0  0  0  0  0  0  0  0  0  0  0
   17.6630   68.6290   31.1450 O   0  0  0  0  0  0  0  0  0  0  0  0
   18.1420   69.4780   32.1870 C   0  0  2  0  0  0  0  0  0  0  0  0
   17.2330   69.3340   33.4190 C   0  0  1  0  0  0  0  0  0  0  0  0
   16.4690   70.5850   33.8450 C   0  0  2  0  0  0  0  0  0  0  0  0
   16.2500   71.6350   32.7440 C   0  0  1  0  0  0  0  0  0  0  0  0
   16.7880   71.1600   31.4100 C   0  0  2  0  0  0  0  0  0  0  0  0
   18.1440   70.7830   31.6300 O   0  0  0  0  0  0  0  0  0  0  0  0
   19.5810   69.0950   32.4650 C   0  0  0  0  0  0  0  0  0  0  0  0
   20.8130   67.0300   31.7830 C   0  0  0  0  0  0  0  0  0  0  0  0
   20.2730   65.8030   32.1730 C   0  0  0  0  0  0  0  0  0  0  0  0
   21.0670   64.7500   32.5770 C   0  0  0  0  0  0  0  0  0  0  0  0
   22.4530   64.9070   32.6210 C   0  0  0  0  0  0  0  0  0  0  0  0
   23.2700   63.8650   33.0250 C   0  0  0  0  0  0  0  0  0  0  0  0
   24.6470   64.0340   33.0770 C   0  0  0  0  0  0  0  0  0  0  0  0
   25.2100   65.2450   32.7100 C   0  0  0  0  0  0  0  0  0  0  0  0
   24.4120   66.2920   32.2960 C   0  0  0  0  0  0  0  0  0  0  0  0
   23.0180   66.1410   32.2510 C   0  0  0  0  0  0  0  0  0  0  0  0
   22.2020   67.1820   31.8380 C   0  0  0  0  0  0  0  0  0  0  0  0
   17.1390   71.1870   34.9550 O   0  0  0  0  0  0  0  0  0  0  0  0
   17.0740   70.5680   35.7220 H   0  0  0  0  0  0  0  0  0  0  0  0
   16.3270   68.2340   33.2870 O   0  0  0  0  0  0  0  0  0  0  0  0
   15.5290   68.5060   32.7880 H   0  0  0  0  0  0  0  0  0  0  0  0
   14.8690   71.9550   32.6320 O   0  0  0  0  0  0  0  0  0  0  0  0
   14.4000   71.2810   32.1050 H   0  0  0  0  0  0  0  0  0  0  0  0
   16.6930   72.1790   30.2680 C   0  0  0  0  0  0  0  0  0  0  0  0
   16.2760   71.4640   29.1040 O   0  0  0  0  0  0  0  0  0  0  0  0
   16.7460   70.6000   29.0750 H   0  0  0  0  0  0  0  0  0  0  0  0
  1 12  1  1  0  0  0
  1 11  1  0  0  0  0
  2  4  1  0  0  0  0
  2  1  1  0  0  0  0
  2  3  1  0  0  0  0
  4  5  1  0  0  0  0
  5 11  1  1  0  0  0
  6  5  1  6  0  0  0
  6  7  1  0  0  0  0
  7 22  1  1  0  0  0
  8 26  1  6  0  0  0
  8  7  1  0  0  0  0
  9 28  1  6  0  0  0
  9 10  1  0  0  0  0
  9  8  1  0  0  0  0
 10  5  1  0  0  0  0
 12 21  2  0  0  0  0
 12 13  1  0  0  0  0
 13 14  2  0  0  0  0
 14 15  1  0  0  0  0
 15 16  2  0  0  0  0
 16 17  1  0  0  0  0
 18 17  2  0  0  0  0
 19 18  1  0  0  0  0
 20 19  2  0  0  0  0
 20 15  1  0  0  0  0
 21 20  1  0  0  0  0
 22 23  1  0  0  0  0
 24  6  1  0  0  0  0
 25 24  1  0  0  0  0
 27 26  1  0  0  0  0
 29 28  1  0  0  0  0
 30 29  1  0  0  0  0
M  END
>  <minimizedAffinity>
-8.95092964

$$$$

 OpenBabel12271915233D

 30 33  0  0  1  0  0  0  0  0999 V2000
   19.1810   66.6370   31.4240 C   0  0  1  0  0  0  0  0  0  0  0  0
   18.4160   66.9180   32.6320 N   0  0  0  0  0  0  0  0  0  0  0  0
   18.9760   67.4830   33.2900 H   0  0  0  0  0  0  0  0  0  0  0  0
   17.3200   67.7320   32.2770 O   0  0  0  0  0  0  0  0  0  0  0  0
   17.5820   68.3510   31.0180 C   0  0  2  0  0  0  0  0  0  0  0  0
   17.6130   69.8790   31.2000 C   0  0  1  0  0  0  0  0  0  0  0  0
   16.5390   70.6690   30.4580 C   0  0  2  0  0  0  0  0  0  0  0  0
   15.2700   69.8810   30.0920 C   0  0  1  0  0  0  0  0  0  0  0  0
   15.3240   68.4640   30.6260 C   0  0  2  0  0  0  0  0  0  0  0  0
   16.5470   67.9010   30.1600 O   0  0  0  0  0  0  0  0  0  0  0  0
   18.8890   67.7910   30.4940 C   0  0  0  0  0  0  0  0  0  0  0  0
   20.6540   66.5200   31.7260 C   0  0  0  0  0  0  0  0  0  0  0  0
   21.5240   67.5930   31.5230 C   0  0  0  0  0  0  0  0  0  0  0  0
   22.8700   67.5070   31.8080 C   0  0  0  0  0  0  0  0  0  0  0  0
   23.3970   66.3130   32.3010 C   0  0  0  0  0  0  0  0  0  0  0  0
   24.7460   66.2020   32.5940 C   0  0  0  0  0  0  0  0  0  0  0  0
   25.2640   65.0060   33.0700 C   0  0  0  0  0  0  0  0  0  0  0  0
   24.4270   63.9200   33.2690 C   0  0  0  0  0  0  0  0  0  0  0  0
   23.0790   64.0140   32.9920 C   0  0  0  0  0  0  0  0  0  0  0  0
   22.5430   65.2110   32.4960 C   0  0  0  0  0  0  0  0  0  0  0  0
   21.1910   65.3240   32.2120 C   0  0  0  0  0  0  0  0  0  0  0  0
   17.1070   71.2380   29.2770 O   0  0  0  0  0  0  0  0  0  0  0  0
   17.7780   71.9070   29.5540 H   0  0  0  0  0  0  0  0  0  0  0  0
   17.6230   70.2500   32.5810 O   0  0  0  0  0  0  0  0  0  0  0  0
   16.7110   70.2730   32.9360 H   0  0  0  0  0  0  0  0  0  0  0  0
   14.1140   70.5470   30.5820 O   0  0  0  0  0  0  0  0  0  0  0  0
   13.9790   70.3550   31.5290 H   0  0  0  0  0  0  0  0  0  0  0  0
   14.1390   67.5740   30.2340 C   0  0  0  0  0  0  0  0  0  0  0  0
   14.4630   66.9770   28.9780 O   0  0  0  0  0  0  0  0  0  0  0  0
   14.8980   67.6510   28.4080 H   0  0  0  0  0  0  0  0  0  0  0  0
  1 12  1  1  0  0  0
  1  2  1  0  0  0  0
  2  3  1  0  0  0  0
  4  2  1  0  0  0  0
  5 11  1  6  0  0  0
  5  4  1  0  0  0  0
  6  5  1  1  0  0  0
  6 24  1  0  0  0  0
  7 22  1  6  0  0  0
  7  6  1  0  0  0  0
  8  7  1  0  0  0  0
  8 26  1  1  0  0  0
  8  9  1  0  0  0  0
  9 28  1  6  0  0  0
 10  9  1  0  0  0  0
 10  5  1  0  0  0  0
 11  1  1  0  0  0  0
 12 21  1  0  0  0  0
 13 12  2  0  0  0  0
 13 14  1  0  0  0  0
 14 15  2  0  0  0  0
 15 20  1  0  0  0  0
 15 16  1  0  0  0  0
 16 17  2  0  0  0  0
 17 18  1  0  0  0  0
 19 18  2  0  0  0  0
 20 19  1  0  0  0  0
 21 20  2  0  0  0  0
 22 23  1  0  0  0  0
 24 25  1  0  0  0  0
 26 27  1  0  0  0  0
 29 28  1  0  0  0  0
 30 29  1  0  0  0  0
M  END
>  <minimizedAffinity>
-8.76055717

$$$$

 OpenBabel12271915233D

 30 33  0  0  1  0  0  0  0  0999 V2000
   19.4410   62.8510   32.3230 C   0  0  1  0  0  0  0  0  0  0  0  0
   19.5560   63.5240   33.6100 N   0  0  0  0  0  0  0  0  0  0  0  0
   19.5000   62.8410   34.3820 H   0  0  0  0  0  0  0  0  0  0  0  0
   20.8480   64.0840   33.6970 O   0  0  0  0  0  0  0  0  0  0  0  0
   21.7050   63.4380   32.7570 C   0  0  2  0  0  0  0  0  0  0  0  0
   22.8460   62.7320   33.5090 C   0  0  1  0  0  0  0  0  0  0  0  0
   24.2570   63.2430   33.2310 C   0  0  2  0  0  0  0  0  0  0  0  0
   24.3490   64.6850   32.7060 C   0  0  1  0  0  0  0  0  0  0  0  0
   22.9840   65.3400   32.6450 C   0  0  2  0  0  0  0  0  0  0  0  0
   22.1480   64.4680   31.8890 O   0  0  0  0  0  0  0  0  0  0  0  0
   20.8550   62.4840   31.9410 C   0  0  0  0  0  0  0  0  0  0  0  0
   18.5550   61.6340   32.4220 C   0  0  0  0  0  0  0  0  0  0  0  0
   19.0930   60.3490   32.5120 C   0  0  0  0  0  0  0  0  0  0  0  0
   18.2970   59.2290   32.6190 C   0  0  0  0  0  0  0  0  0  0  0  0
   16.9090   59.3650   32.6210 C   0  0  0  0  0  0  0  0  0  0  0  0
   16.0880   58.2540   32.7250 C   0  0  0  0  0  0  0  0  0  0  0  0
   14.7080   58.3990   32.7140 C   0  0  0  0  0  0  0  0  0  0  0  0
   14.1450   59.6600   32.6110 C   0  0  0  0  0  0  0  0  0  0  0  0
   14.9460   60.7800   32.5160 C   0  0  0  0  0  0  0  0  0  0  0  0
   16.3420   60.6490   32.5120 C   0  0  0  0  0  0  0  0  0  0  0  0
   17.1620   61.7620   32.4170 C   0  0  0  0  0  0  0  0  0  0  0  0
   24.9030   62.3570   32.3140 O   0  0  0  0  0  0  0  0  0  0  0  0
   25.0250   61.4880   32.7650 H   0  0  0  0  0  0  0  0  0  0  0  0
   22.6120   62.6980   34.9200 O   0  0  0  0  0  0  0  0  0  0  0  0
   22.9140   63.5310   35.3380 H   0  0  0  0  0  0  0  0  0  0  0  0
   25.2270   65.4530   33.5170 O   0  0  0  0  0  0  0  0  0  0  0  0
   24.7730   65.7590   34.3250 H   0  0  0  0  0  0  0  0  0  0  0  0
   22.9640   66.7520   32.0490 C   0  0  0  0  0  0  0  0  0  0  0  0
   24.0990   66.8590   31.1880 O   0  0  0  0  0  0  0  0  0  0  0  0
   24.8670   66.4190   31.6180 H   0  0  0  0  0  0  0  0  0  0  0  0
  1 12  1  1  0  0  0
  1  2  1  0  0  0  0
  2  4  1  0  0  0  0
  2  3  1  0  0  0  0
  5 11  1  6  0  0  0
  5  4  1  0  0  0  0
  6  5  1  6  0  0  0
  6 24  1  0  0  0  0
  7 22  1  6  0  0  0
  7  6  1  0  0  0  0
  8  7  1  0  0  0  0
  8 26  1  1  0  0  0
  9 28  1  6  0  0  0
  9  8  1  0  0  0  0
 10  9  1  0  0  0  0
 10  5  1  0  0  0  0
 11  1  1  0  0  0  0
 12 13  1  0  0  0  0
 13 14  2  0  0  0  0
 14 15  1  0  0  0  0
 15 16  2  0  0  0  0
 17 16  1  0  0  0  0
 18 17  2  0  0  0  0
 19 18  1  0  0  0  0
 20 19  2  0  0  0  0
 20 15  1  0  0  0  0
 21 12  2  0  0  0  0
 21 20  1  0  0  0  0
 22 23  1  0  0  0  0
 24 25  1  0  0  0  0
 26 27  1  0  0  0  0
 29 30  1  0  0  0  0
 29 28  1  0  0  0  0
M  END
>  <minimizedAffinity>
-8.50640202

$$$$
