
 OpenBabel12271915163D

 42 46  0  0  1  0  0  0  0  0999 V2000
   21.4380   61.7320   33.0260 C   0  0  1  0  0  0  0  0  0  0  0  0
   22.6900   62.6680   32.6260 C   0  0  1  0  0  0  0  0  0  0  0  0
   22.4460   64.1690   32.3100 C   0  0  0  0  0  0  0  0  0  0  0  0
   21.1510   64.7610   32.4550 C   0  0  0  0  0  0  0  0  0  0  0  0
   20.9810   66.1040   32.1900 C   0  0  0  0  0  0  0  0  0  0  0  0
   19.8020   66.7490   32.2580 O   0  0  0  0  0  0  0  0  0  0  0  0
   20.1940   68.0190   31.6190 C   0  0  0  0  0  0  0  0  0  0  0  0
   21.6640   68.1740   31.6360 O   0  0  0  0  0  0  0  0  0  0  0  0
   22.0170   66.8760   31.8510 C   0  0  0  0  0  0  0  0  0  0  0  0
   23.2700   66.3890   31.7470 C   0  0  0  0  0  0  0  0  0  0  0  0
   23.5260   65.0020   31.9710 C   0  0  0  0  0  0  0  0  0  0  0  0
   24.9370   64.5530   31.8450 C   0  0  0  0  0  0  0  0  0  0  0  0
   25.4490   63.6730   32.9130 C   0  0  0  0  0  0  0  0  0  0  0  0
   24.4940   63.5950   34.1140 N   0  0  2  0  0  0  0  0  0  0  0  0
   24.0290   64.5310   34.2310 H   0  0  0  0  0  0  0  0  0  0  0  0
   25.2100   63.1220   35.3010 C   0  0  0  0  0  0  0  0  0  0  0  0
   25.2230   61.6040   35.1150 C   0  0  0  0  0  0  0  0  0  0  0  0
   24.1810   61.2490   34.0890 C   0  0  0  0  0  0  0  0  0  0  0  0
   23.4120   62.5730   33.9290 C   0  0  2  0  0  0  0  0  0  0  0  0
   22.3070   62.6290   34.9870 C   0  0  0  0  0  0  0  0  0  0  0  0
   21.2330   62.1740   34.4530 C   0  0  1  0  0  0  0  0  0  0  0  0
   20.0140   62.1260   35.0360 O   0  0  0  0  0  0  0  0  0  0  0  0
   19.5770   63.4020   35.5440 C   0  0  0  0  0  0  0  0  0  0  0  0
   20.2710   61.8630   32.0910 O   0  0  0  0  0  0  0  0  0  0  0  0
   19.2580   61.0930   32.4190 C   0  0  0  0  0  0  0  0  0  0  0  0
   19.2880   59.7880   32.5850 O   0  0  0  0  0  0  0  0  0  0  0  0
   17.9100   61.8010   32.4640 C   0  0  2  0  0  0  0  0  0  0  0  0
   17.4870   62.0520   33.8400 O   0  0  0  0  0  0  0  0  0  0  0  0
   17.8890   62.8790   34.0620 H   0  0  0  0  0  0  0  0  0  0  0  0
   16.9280   60.8340   31.6670 C   0  0  0  0  0  0  0  0  0  0  0  0
   15.5080   60.6240   32.3080 C   0  0  0  0  0  0  0  0  0  0  0  0
   14.5090   61.3100   31.9830 O   0  0  0  0  0  0  0  0  0  0  0  0
   15.5820   59.6990   33.2450 O   0  0  0  0  0  0  0  0  0  0  0  0
   16.0860   58.3740   32.7860 C   0  0  0  0  0  0  0  0  0  0  0  0
   18.1900   63.0750   31.7160 C   0  0  0  0  0  0  0  0  0  0  0  0
   17.0230   63.6780   30.7980 C   0  0  0  0  0  0  0  0  0  0  0  0
   16.1250   64.5440   31.6220 C   0  0  0  0  0  0  0  0  0  0  0  0
   16.1710   66.0740   31.2990 C   0  0  0  0  0  0  0  0  0  0  0  0
   16.6830   66.4030   29.8880 C   0  0  0  0  0  0  0  0  0  0  0  0
   14.7700   66.5300   31.4420 C   0  0  0  0  0  0  0  0  0  0  0  0
   16.9840   66.7640   32.2490 O   0  0  0  0  0  0  0  0  0  0  0  0
   16.4260   66.9510   33.0020 H   0  0  0  0  0  0  0  0  0  0  0  0
  1 24  1  6  0  0  0
  1 21  1  0  0  0  0
  2  1  1  0  0  0  0
  2 19  1  1  0  0  0
  3  4  1  0  0  0  0
  3  2  1  0  0  0  0
  5  6  1  0  0  0  0
  5  4  2  0  0  0  0
  7  8  1  0  0  0  0
  7  6  1  0  0  0  0
  8  9  1  0  0  0  0
  9  5  1  0  0  0  0
 10  9  2  0  0  0  0
 10 11  1  0  0  0  0
 11  3  2  0  0  0  0
 12 11  1  0  0  0  0
 12 13  1  0  0  0  0
 13 14  1  0  0  0  0
 14 19  1  6  0  0  0
 14 15  1  0  0  0  0
 14 16  1  0  0  0  0
 17 16  1  0  0  0  0
 18 17  1  0  0  0  0
 19 18  1  1  0  0  0
 19 20  1  0  0  0  0
 21 20  1  0  0  0  0
 21 22  1  6  0  0  0
 22 23  1  0  0  0  0
 24 25  1  0  0  0  0
 25 27  1  0  0  0  0
 25 26  2  0  0  0  0
 27 30  1  6  0  0  0
 27 28  1  0  0  0  0
 28 29  1  0  0  0  0
 30 31  1  0  0  0  0
 31 33  1  0  0  0  0
 32 31  2  0  0  0  0
 34 33  1  0  0  0  0
 35 27  1  0  0  0  0
 36 37  1  0  0  0  0
 36 35  1  0  0  0  0
 38 40  1  0  0  0  0
 38 37  1  0  0  0  0
 38 41  1  0  0  0  0
 39 38  1  0  0  0  0
 41 42  1  0  0  0  0
M  END
>  <minimizedAffinity>
-8.49370956

$$$$

 OpenBabel12271915163D

 42 46  0  0  1  0  0  0  0  0999 V2000
   21.0020   63.0580   32.1830 C   0  0  1  0  0  0  0  0  0  0  0  0
   22.0100   64.2890   31.9090 C   0  0  1  0  0  0  0  0  0  0  0  0
   21.4570   65.7410   31.9300 C   0  0  0  0  0  0  0  0  0  0  0  0
   20.0970   66.0170   32.2760 C   0  0  0  0  0  0  0  0  0  0  0  0
   19.6520   67.3220   32.3090 C   0  0  0  0  0  0  0  0  0  0  0  0
   18.3860   67.6870   32.5840 O   0  0  0  0  0  0  0  0  0  0  0  0
   18.4660   69.1090   32.2010 C   0  0  0  0  0  0  0  0  0  0  0  0
   19.8740   69.5550   32.1580 O   0  0  0  0  0  0  0  0  0  0  0  0
   20.4850   68.3400   32.0740 C   0  0  0  0  0  0  0  0  0  0  0  0
   21.7890   68.1480   31.7930 C   0  0  0  0  0  0  0  0  0  0  0  0
   22.3220   66.8260   31.7060 C   0  0  0  0  0  0  0  0  0  0  0  0
   23.7710   66.7080   31.4000 C   0  0  0  0  0  0  0  0  0  0  0  0
   24.5470   65.7620   32.2270 C   0  0  0  0  0  0  0  0  0  0  0  0
   23.7510   65.2610   33.4420 N   0  0  2  0  0  0  0  0  0  0  0  0
   23.1340   66.0420   33.7810 H   0  0  0  0  0  0  0  0  0  0  0  0
   24.6610   64.7250   34.4570 C   0  0  0  0  0  0  0  0  0  0  0  0
   24.9390   63.3060   33.9570 C   0  0  0  0  0  0  0  0  0  0  0  0
   23.8820   62.9510   32.9480 C   0  0  0  0  0  0  0  0  0  0  0  0
   22.8670   64.0950   33.1160 C   0  0  2  0  0  0  0  0  0  0  0  0
   21.8860   63.7190   34.2300 C   0  0  0  0  0  0  0  0  0  0  0  0
   20.8660   63.1660   33.6810 C   0  0  1  0  0  0  0  0  0  0  0  0
   19.7450   62.7590   34.3170 O   0  0  0  0  0  0  0  0  0  0  0  0
   19.6970   63.1650   35.6980 C   0  0  0  0  0  0  0  0  0  0  0  0
   19.7420   63.1260   31.3710 O   0  0  0  0  0  0  0  0  0  0  0  0
   18.8500   62.2300   31.7290 C   0  0  0  0  0  0  0  0  0  0  0  0
   19.0260   60.9270   31.7790 O   0  0  0  0  0  0  0  0  0  0  0  0
   17.4510   62.7850   31.9640 C   0  0  2  0  0  0  0  0  0  0  0  0
   17.2470   63.1340   33.3680 O   0  0  0  0  0  0  0  0  0  0  0  0
   17.5720   64.0190   33.4400 H   0  0  0  0  0  0  0  0  0  0  0  0
   16.4770   61.6350   31.4500 C   0  0  0  0  0  0  0  0  0  0  0  0
   15.3770   61.1660   32.4710 C   0  0  0  0  0  0  0  0  0  0  0  0
   15.5910   60.2910   33.3440 O   0  0  0  0  0  0  0  0  0  0  0  0
   14.2390   61.7760   32.2010 O   0  0  0  0  0  0  0  0  0  0  0  0
   13.8380   62.8270   33.1790 C   0  0  0  0  0  0  0  0  0  0  0  0
   17.4290   63.9940   31.0710 C   0  0  0  0  0  0  0  0  0  0  0  0
   16.2790   65.0830   31.3100 C   0  0  0  0  0  0  0  0  0  0  0  0
   16.2580   66.0570   30.1760 C   0  0  0  0  0  0  0  0  0  0  0  0
   14.9450   66.8940   30.0210 C   0  0  0  0  0  0  0  0  0  0  0  0
   13.8340   66.5080   31.0100 C   0  0  0  0  0  0  0  0  0  0  0  0
   15.3630   68.2940   30.2590 C   0  0  0  0  0  0  0  0  0  0  0  0
   14.4300   66.7810   28.6940 O   0  0  0  0  0  0  0  0  0  0  0  0
   14.8920   67.4280   28.1660 H   0  0  0  0  0  0  0  0  0  0  0  0
  1 24  1  6  0  0  0
  1 21  1  0  0  0  0
  2  3  1  0  0  0  0
  2  1  1  0  0  0  0
  2 19  1  1  0  0  0
  3  4  2  0  0  0  0
  4  5  1  0  0  0  0
  5  6  1  0  0  0  0
  7  6  1  0  0  0  0
  8  7  1  0  0  0  0
  9  8  1  0  0  0  0
  9  5  2  0  0  0  0
 10  9  1  0  0  0  0
 11 10  2  0  0  0  0
 11  3  1  0  0  0  0
 12 11  1  0  0  0  0
 12 13  1  0  0  0  0
 13 14  1  0  0  0  0
 14 19  1  6  0  0  0
 14 15  1  0  0  0  0
 14 16  1  0  0  0  0
 17 16  1  0  0  0  0
 18 17  1  0  0  0  0
 19 18  1  6  0  0  0
 19 20  1  0  0  0  0
 21 20  1  0  0  0  0
 21 22  1  6  0  0  0
 22 23  1  0  0  0  0
 24 25  1  0  0  0  0
 25 26  2  0  0  0  0
 25 27  1  0  0  0  0
 27 35  1  6  0  0  0
 27 28  1  0  0  0  0
 28 29  1  0  0  0  0
 30 27  1  0  0  0  0
 30 31  1  0  0  0  0
 31 32  2  0  0  0  0
 33 31  1  0  0  0  0
 33 34  1  0  0  0  0
 35 36  1  0  0  0  0
 37 36  1  0  0  0  0
 38 37  1  0  0  0  0
 38 40  1  0  0  0  0
 38 39  1  0  0  0  0
 41 38  1  0  0  0  0
 42 41  1  0  0  0  0
M  END
>  <minimizedAffinity>
-8.2138567

$$$$

 OpenBabel12271915163D

 42 46  0  0  1  0  0  0  0  0999 V2000
   21.1810   62.2340   32.6410 C   0  0  1  0  0  0  0  0  0  0  0  0
   22.6260   62.9200   32.4210 C   0  0  1  0  0  0  0  0  0  0  0  0
   22.7090   64.4520   32.1760 C   0  0  0  0  0  0  0  0  0  0  0  0
   21.5450   65.2810   32.2320 C   0  0  0  0  0  0  0  0  0  0  0  0
   21.6640   66.6420   32.0350 C   0  0  0  0  0  0  0  0  0  0  0  0
   20.6310   67.5030   32.0290 O   0  0  0  0  0  0  0  0  0  0  0  0
   21.3250   68.6960   31.5090 C   0  0  0  0  0  0  0  0  0  0  0  0
   22.7870   68.5570   31.6760 O   0  0  0  0  0  0  0  0  0  0  0  0
   22.8600   67.2070   31.8440 C   0  0  0  0  0  0  0  0  0  0  0  0
   23.9990   66.4870   31.8310 C   0  0  0  0  0  0  0  0  0  0  0  0
   23.9590   65.0690   31.9940 C   0  0  0  0  0  0  0  0  0  0  0  0
   25.2630   64.3560   31.9750 C   0  0  0  0  0  0  0  0  0  0  0  0
   25.4810   63.3490   33.0330 C   0  0  0  0  0  0  0  0  0  0  0  0
   24.4060   63.4110   34.1290 N   0  0  2  0  0  0  0  0  0  0  0  0
   24.1200   64.4150   34.2580 H   0  0  0  0  0  0  0  0  0  0  0  0
   24.8880   62.7570   35.3480 C   0  0  0  0  0  0  0  0  0  0  0  0
   24.6290   61.2750   35.0710 C   0  0  0  0  0  0  0  0  0  0  0  0
   23.6530   61.1760   33.9310 C   0  0  0  0  0  0  0  0  0  0  0  0
   23.1740   62.6310   33.7790 C   0  0  2  0  0  0  0  0  0  0  0  0
   21.9950   62.8600   34.7280 C   0  0  0  0  0  0  0  0  0  0  0  0
   20.9150   62.6490   34.0670 C   0  0  1  0  0  0  0  0  0  0  0  0
   19.6560   62.8180   34.5270 O   0  0  0  0  0  0  0  0  0  0  0  0
   19.6060   63.2430   35.9030 C   0  0  0  0  0  0  0  0  0  0  0  0
   20.1670   62.6320   31.6090 O   0  0  0  0  0  0  0  0  0  0  0  0
   19.0070   62.0370   31.7710 C   0  0  0  0  0  0  0  0  0  0  0  0
   18.8060   60.7490   31.9520 O   0  0  0  0  0  0  0  0  0  0  0  0
   17.7970   62.9430   31.5820 C   0  0  2  0  0  0  0  0  0  0  0  0
   16.8890   62.4120   30.5680 O   0  0  0  0  0  0  0  0  0  0  0  0
   16.3260   61.8190   31.0430 H   0  0  0  0  0  0  0  0  0  0  0  0
   18.4190   64.3570   31.1960 C   0  0  0  0  0  0  0  0  0  0  0  0
   17.4060   65.5610   31.1600 C   0  0  0  0  0  0  0  0  0  0  0  0
   17.5660   66.6010   31.8410 O   0  0  0  0  0  0  0  0  0  0  0  0
   16.3870   65.2520   30.3830 O   0  0  0  0  0  0  0  0  0  0  0  0
   15.6550   66.4160   29.8080 C   0  0  0  0  0  0  0  0  0  0  0  0
   17.1780   62.9450   32.9510 C   0  0  0  0  0  0  0  0  0  0  0  0
   15.5810   63.0260   33.0530 C   0  0  0  0  0  0  0  0  0  0  0  0
   15.0520   61.7990   33.7250 C   0  0  0  0  0  0  0  0  0  0  0  0
   14.6000   60.6430   32.7730 C   0  0  0  0  0  0  0  0  0  0  0  0
   15.5690   59.4520   32.7280 C   0  0  0  0  0  0  0  0  0  0  0  0
   13.2930   60.2040   33.3110 C   0  0  0  0  0  0  0  0  0  0  0  0
   14.4160   61.1290   31.4430 O   0  0  0  0  0  0  0  0  0  0  0  0
   13.5340   61.4920   31.4040 H   0  0  0  0  0  0  0  0  0  0  0  0
  1 24  1  6  0  0  0
  1 21  1  0  0  0  0
  2  1  1  0  0  0  0
  2 19  1  1  0  0  0
  3  4  1  0  0  0  0
  3  2  1  0  0  0  0
  5  4  2  0  0  0  0
  6  5  1  0  0  0  0
  7  8  1  0  0  0  0
  7  6  1  0  0  0  0
  8  9  1  0  0  0  0
  9  5  1  0  0  0  0
 10  9  2  0  0  0  0
 10 11  1  0  0  0  0
 11  3  2  0  0  0  0
 12 11  1  0  0  0  0
 12 13  1  0  0  0  0
 13 14  1  0  0  0  0
 14 19  1  6  0  0  0
 14 15  1  0  0  0  0
 14 16  1  0  0  0  0
 17 16  1  0  0  0  0
 18 17  1  0  0  0  0
 19 18  1  1  0  0  0
 19 20  1  0  0  0  0
 21 22  1  6  0  0  0
 21 20  1  0  0  0  0
 22 23  1  0  0  0  0
 24 25  1  0  0  0  0
 25 26  2  0  0  0  0
 27 30  1  6  0  0  0
 27 25  1  0  0  0  0
 27 35  1  0  0  0  0
 28 29  1  0  0  0  0
 28 27  1  0  0  0  0
 31 30  1  0  0  0  0
 31 32  2  0  0  0  0
 33 31  1  0  0  0  0
 34 33  1  0  0  0  0
 35 36  1  0  0  0  0
 36 37  1  0  0  0  0
 38 40  1  0  0  0  0
 38 37  1  0  0  0  0
 39 38  1  0  0  0  0
 41 38  1  0  0  0  0
 42 41  1  0  0  0  0
M  END
>  <minimizedAffinity>
-7.96711826

$$$$

 OpenBabel12271915163D

 42 46  0  0  1  0  0  0  0  0999 V2000
   20.8480   63.2250   32.1650 C   0  0  1  0  0  0  0  0  0  0  0  0
   21.8920   64.4280   31.9040 C   0  0  1  0  0  0  0  0  0  0  0  0
   21.3800   65.8940   31.9190 C   0  0  0  0  0  0  0  0  0  0  0  0
   20.0230   66.2080   32.2500 C   0  0  0  0  0  0  0  0  0  0  0  0
   19.6140   67.5250   32.2790 C   0  0  0  0  0  0  0  0  0  0  0  0
   18.3560   67.9250   32.5400 O   0  0  0  0  0  0  0  0  0  0  0  0
   18.4800   69.3440   32.1590 C   0  0  0  0  0  0  0  0  0  0  0  0
   19.9000   69.7510   32.1310 O   0  0  0  0  0  0  0  0  0  0  0  0
   20.4770   68.5200   32.0540 C   0  0  0  0  0  0  0  0  0  0  0  0
   21.7790   68.2920   31.7870 C   0  0  0  0  0  0  0  0  0  0  0  0
   22.2760   66.9560   31.7050 C   0  0  0  0  0  0  0  0  0  0  0  0
   23.7250   66.7970   31.4160 C   0  0  0  0  0  0  0  0  0  0  0  0
   24.4650   65.8300   32.2510 C   0  0  0  0  0  0  0  0  0  0  0  0
   23.6420   65.3510   33.4570 N   0  0  2  0  0  0  0  0  0  0  0  0
   23.0430   66.1490   33.7890 H   0  0  0  0  0  0  0  0  0  0  0  0
   24.5250   64.7900   34.4820 C   0  0  0  0  0  0  0  0  0  0  0  0
   24.7700   63.3640   33.9840 C   0  0  0  0  0  0  0  0  0  0  0  0
   23.7150   63.0380   32.9620 C   0  0  0  0  0  0  0  0  0  0  0  0
   22.7300   64.2100   33.1200 C   0  0  2  0  0  0  0  0  0  0  0  0
   21.7260   63.8610   34.2220 C   0  0  0  0  0  0  0  0  0  0  0  0
   20.6980   63.3360   33.6610 C   0  0  1  0  0  0  0  0  0  0  0  0
   19.5590   62.9610   34.2850 O   0  0  0  0  0  0  0  0  0  0  0  0
   19.7240   62.7700   35.7030 C   0  0  0  0  0  0  0  0  0  0  0  0
   19.5980   63.3280   31.3390 O   0  0  0  0  0  0  0  0  0  0  0  0
   18.7320   62.3740   31.5960 C   0  0  0  0  0  0  0  0  0  0  0  0
   18.9990   61.0960   31.7560 O   0  0  0  0  0  0  0  0  0  0  0  0
   17.2740   62.8140   31.5540 C   0  0  2  0  0  0  0  0  0  0  0  0
   16.6580   62.4920   30.2690 O   0  0  0  0  0  0  0  0  0  0  0  0
   16.3510   61.6040   30.3720 H   0  0  0  0  0  0  0  0  0  0  0  0
   17.3230   64.3760   31.8580 C   0  0  0  0  0  0  0  0  0  0  0  0
   16.4500   65.2830   30.9150 C   0  0  0  0  0  0  0  0  0  0  0  0
   16.9490   66.1330   30.1410 O   0  0  0  0  0  0  0  0  0  0  0  0
   15.1720   65.0430   31.1370 O   0  0  0  0  0  0  0  0  0  0  0  0
   14.7000   65.3600   32.5150 C   0  0  0  0  0  0  0  0  0  0  0  0
   16.6680   62.0300   32.6850 C   0  0  0  0  0  0  0  0  0  0  0  0
   15.3840   61.1250   32.3680 C   0  0  0  0  0  0  0  0  0  0  0  0
   14.3030   61.4120   33.3600 C   0  0  0  0  0  0  0  0  0  0  0  0
   13.9690   60.2530   34.3560 C   0  0  0  0  0  0  0  0  0  0  0  0
   12.4650   59.9960   34.5390 C   0  0  0  0  0  0  0  0  0  0  0  0
   14.6120   59.0560   33.7690 C   0  0  0  0  0  0  0  0  0  0  0  0
   14.5440   60.5100   35.6380 O   0  0  0  0  0  0  0  0  0  0  0  0
   15.4470   60.2010   35.5990 H   0  0  0  0  0  0  0  0  0  0  0  0
  1 24  1  6  0  0  0
  1 21  1  0  0  0  0
  2  3  1  0  0  0  0
  2  1  1  0  0  0  0
  2 19  1  1  0  0  0
  3  4  2  0  0  0  0
  4  5  1  0  0  0  0
  5  6  1  0  0  0  0
  7  6  1  0  0  0  0
  8  7  1  0  0  0  0
  9  8  1  0  0  0  0
  9  5  2  0  0  0  0
 10  9  1  0  0  0  0
 11 10  2  0  0  0  0
 11  3  1  0  0  0  0
 12 11  1  0  0  0  0
 12 13  1  0  0  0  0
 13 14  1  0  0  0  0
 14 19  1  6  0  0  0
 14 15  1  0  0  0  0
 14 16  1  0  0  0  0
 17 16  1  0  0  0  0
 18 17  1  0  0  0  0
 19 18  1  6  0  0  0
 19 20  1  0  0  0  0
 21 20  1  0  0  0  0
 21 22  1  6  0  0  0
 22 23  1  0  0  0  0
 24 25  1  0  0  0  0
 25 26  2  0  0  0  0
 27 25  1  0  0  0  0
 27 30  1  1  0  0  0
 27 35  1  0  0  0  0
 28 29  1  0  0  0  0
 28 27  1  0  0  0  0
 31 33  1  0  0  0  0
 31 30  1  0  0  0  0
 32 31  2  0  0  0  0
 33 34  1  0  0  0  0
 36 35  1  0  0  0  0
 36 37  1  0  0  0  0
 37 38  1  0  0  0  0
 38 39  1  0  0  0  0
 38 41  1  0  0  0  0
 40 38  1  0  0  0  0
 42 41  1  0  0  0  0
M  END
>  <minimizedAffinity>
-7.88273478

$$$$

 OpenBabel12271915163D

 42 46  0  0  1  0  0  0  0  0999 V2000
   13.4660   61.6460   34.3030 C   0  0  1  0  0  0  0  0  0  0  0  0
   12.8180   60.4870   33.3860 C   0  0  1  0  0  0  0  0  0  0  0  0
   13.4560   59.0710   33.3890 C   0  0  0  0  0  0  0  0  0  0  0  0
   14.5470   58.7450   34.2560 C   0  0  0  0  0  0  0  0  0  0  0  0
   15.0680   57.4680   34.2490 C   0  0  0  0  0  0  0  0  0  0  0  0
   16.1150   57.0700   34.9940 O   0  0  0  0  0  0  0  0  0  0  0  0
   16.3630   55.7590   34.3640 C   0  0  0  0  0  0  0  0  0  0  0  0
   15.1730   55.3140   33.6090 O   0  0  0  0  0  0  0  0  0  0  0  0
   14.5360   56.5120   33.4820 C   0  0  0  0  0  0  0  0  0  0  0  0
   13.4760   56.7410   32.6820 C   0  0  0  0  0  0  0  0  0  0  0  0
   12.8980   58.0450   32.6060 C   0  0  0  0  0  0  0  0  0  0  0  0
   11.7270   58.2070   31.7060 C   0  0  0  0  0  0  0  0  0  0  0  0
   10.5720   58.9470   32.2500 C   0  0  0  0  0  0  0  0  0  0  0  0
   10.6950   59.1920   33.7620 N   0  0  2  0  0  0  0  0  0  0  0  0
   11.1800   58.3650   34.1950 H   0  0  0  0  0  0  0  0  0  0  0  0
    9.3800   59.4910   34.3350 C   0  0  0  0  0  0  0  0  0  0  0  0
    9.2010   60.9800   34.0310 C   0  0  0  0  0  0  0  0  0  0  0  0
   10.5500   61.5530   33.6910 C   0  0  0  0  0  0  0  0  0  0  0  0
   11.5030   60.4120   34.0880 C   0  0  2  0  0  0  0  0  0  0  0  0
   11.8500   60.5580   35.5720 C   0  0  0  0  0  0  0  0  0  0  0  0
   12.9420   61.2270   35.6530 C   0  0  1  0  0  0  0  0  0  0  0  0
   13.6200   61.5060   36.7890 O   0  0  0  0  0  0  0  0  0  0  0  0
   12.7760   61.9980   37.8480 C   0  0  0  0  0  0  0  0  0  0  0  0
   14.9550   61.7670   34.1510 O   0  0  0  0  0  0  0  0  0  0  0  0
   15.3150   62.7880   33.4080 C   0  0  0  0  0  0  0  0  0  0  0  0
   14.7650   63.9840   33.4000 O   0  0  0  0  0  0  0  0  0  0  0  0
   16.3830   62.4720   32.3680 C   0  0  2  0  0  0  0  0  0  0  0  0
   15.8340   61.6850   31.2660 O   0  0  0  0  0  0  0  0  0  0  0  0
   15.4910   62.3300   30.6650 H   0  0  0  0  0  0  0  0  0  0  0  0
   17.5170   61.7100   33.1860 C   0  0  0  0  0  0  0  0  0  0  0  0
   18.2960   60.5950   32.3960 C   0  0  0  0  0  0  0  0  0  0  0  0
   19.4400   60.7770   31.9170 O   0  0  0  0  0  0  0  0  0  0  0  0
   17.5320   59.5260   32.2780 O   0  0  0  0  0  0  0  0  0  0  0  0
   18.2300   58.2250   32.4830 C   0  0  0  0  0  0  0  0  0  0  0  0
   16.8190   63.8400   31.9260 C   0  0  0  0  0  0  0  0  0  0  0  0
   18.2390   63.9760   31.1960 C   0  0  0  0  0  0  0  0  0  0  0  0
   19.1290   64.8840   31.9830 C   0  0  0  0  0  0  0  0  0  0  0  0
   20.5000   64.2750   32.4270 C   0  0  0  0  0  0  0  0  0  0  0  0
   21.6750   65.2650   32.3700 C   0  0  0  0  0  0  0  0  0  0  0  0
   20.2810   63.8390   33.8240 C   0  0  0  0  0  0  0  0  0  0  0  0
   20.8270   63.1370   31.6290 O   0  0  0  0  0  0  0  0  0  0  0  0
   20.3810   62.3910   32.0230 H   0  0  0  0  0  0  0  0  0  0  0  0
  1 24  1  1  0  0  0
  1 21  1  0  0  0  0
  2  3  1  0  0  0  0
  2 19  1  1  0  0  0
  2  1  1  0  0  0  0
  3  4  2  0  0  0  0
  5  4  1  0  0  0  0
  5  6  1  0  0  0  0
  7  6  1  0  0  0  0
  8  7  1  0  0  0  0
  9  8  1  0  0  0  0
  9  5  2  0  0  0  0
 10  9  1  0  0  0  0
 11 10  2  0  0  0  0
 11  3  1  0  0  0  0
 12 13  1  0  0  0  0
 12 11  1  0  0  0  0
 13 14  1  0  0  0  0
 14 19  1  1  0  0  0
 14 15  1  0  0  0  0
 14 16  1  0  0  0  0
 17 16  1  0  0  0  0
 18 17  1  0  0  0  0
 19 18  1  6  0  0  0
 19 20  1  0  0  0  0
 20 21  1  0  0  0  0
 21 22  1  6  0  0  0
 22 23  1  0  0  0  0
 25 24  1  0  0  0  0
 26 25  2  0  0  0  0
 27 35  1  6  0  0  0
 27 30  1  0  0  0  0
 27 25  1  0  0  0  0
 28 27  1  0  0  0  0
 29 28  1  0  0  0  0
 31 30  1  0  0  0  0
 32 31  2  0  0  0  0
 33 31  1  0  0  0  0
 33 34  1  0  0  0  0
 36 35  1  0  0  0  0
 36 37  1  0  0  0  0
 37 38  1  0  0  0  0
 38 40  1  0  0  0  0
 39 38  1  0  0  0  0
 41 42  1  0  0  0  0
 41 38  1  0  0  0  0
M  END
>  <minimizedAffinity>
-7.13856506

$$$$

 OpenBabel12271915163D

 42 46  0  0  1  0  0  0  0  0999 V2000
   16.8510   69.1800   31.8370 C   0  0  1  0  0  0  0  0  0  0  0  0
   15.7710   68.5820   30.7970 C   0  0  1  0  0  0  0  0  0  0  0  0
   14.9070   67.3620   31.2190 C   0  0  0  0  0  0  0  0  0  0  0  0
   14.9810   66.8160   32.5390 C   0  0  0  0  0  0  0  0  0  0  0  0
   14.1770   65.7480   32.8830 C   0  0  0  0  0  0  0  0  0  0  0  0
   14.1960   65.1370   34.0810 O   0  0  0  0  0  0  0  0  0  0  0  0
   13.3710   63.9580   33.7540 C   0  0  0  0  0  0  0  0  0  0  0  0
   12.5790   64.2050   32.5310 O   0  0  0  0  0  0  0  0  0  0  0  0
   13.2900   65.2480   32.0180 C   0  0  0  0  0  0  0  0  0  0  0  0
   13.1360   65.7520   30.7770 C   0  0  0  0  0  0  0  0  0  0  0  0
   13.9530   66.8350   30.3310 C   0  0  0  0  0  0  0  0  0  0  0  0
   13.7100   67.3330   28.9520 C   0  0  0  0  0  0  0  0  0  0  0  0
   13.6250   68.7970   28.7840 C   0  0  0  0  0  0  0  0  0  0  0  0
   13.5420   69.5360   30.1280 N   0  0  2  0  0  0  0  0  0  0  0  0
   12.9940   68.9420   30.8020 H   0  0  0  0  0  0  0  0  0  0  0  0
   13.0020   70.8840   29.9330 C   0  0  0  0  0  0  0  0  0  0  0  0
   14.2250   71.6840   29.4810 C   0  0  0  0  0  0  0  0  0  0  0  0
   15.4570   70.8960   29.8360 C   0  0  0  0  0  0  0  0  0  0  0  0
   14.8890   69.7850   30.7370 C   0  0  2  0  0  0  0  0  0  0  0  0
   14.8420   70.3000   32.1790 C   0  0  0  0  0  0  0  0  0  0  0  0
   15.9280   69.9370   32.7580 C   0  0  1  0  0  0  0  0  0  0  0  0
   16.2370   70.1330   34.0600 O   0  0  0  0  0  0  0  0  0  0  0  0
   15.2860   69.5400   34.9650 C   0  0  0  0  0  0  0  0  0  0  0  0
   17.7310   68.1330   32.4540 O   0  0  0  0  0  0  0  0  0  0  0  0
   19.0120   68.3910   32.3180 C   0  0  0  0  0  0  0  0  0  0  0  0
   19.6370   69.4810   32.7070 O   0  0  0  0  0  0  0  0  0  0  0  0
   19.7830   67.3640   31.4980 C   0  0  2  0  0  0  0  0  0  0  0  0
   19.2470   67.2550   30.1430 O   0  0  0  0  0  0  0  0  0  0  0  0
   19.6980   67.9290   29.6570 H   0  0  0  0  0  0  0  0  0  0  0  0
   19.6600   66.0160   32.3370 C   0  0  0  0  0  0  0  0  0  0  0  0
   19.0000   64.8020   31.5850 C   0  0  0  0  0  0  0  0  0  0  0  0
   19.6360   63.7620   31.2880 O   0  0  0  0  0  0  0  0  0  0  0  0
   17.7520   65.1000   31.2810 O   0  0  0  0  0  0  0  0  0  0  0  0
   16.9240   63.9520   30.8120 C   0  0  0  0  0  0  0  0  0  0  0  0
   21.1780   67.9200   31.5120 C   0  0  0  0  0  0  0  0  0  0  0  0
   22.2550   67.2260   32.4750 C   0  0  0  0  0  0  0  0  0  0  0  0
   23.2190   66.4210   31.6620 C   0  0  0  0  0  0  0  0  0  0  0  0
   23.5860   65.0140   32.2380 C   0  0  0  0  0  0  0  0  0  0  0  0
   24.9240   64.4560   31.7280 C   0  0  0  0  0  0  0  0  0  0  0  0
   23.6530   65.2130   33.7030 C   0  0  0  0  0  0  0  0  0  0  0  0
   22.5580   64.0660   31.9440 O   0  0  0  0  0  0  0  0  0  0  0  0
   21.8970   64.1610   32.6250 H   0  0  0  0  0  0  0  0  0  0  0  0
  1 24  1  1  0  0  0
  1 21  1  0  0  0  0
  2 19  1  1  0  0  0
  2  3  1  0  0  0  0
  2  1  1  0  0  0  0
  3  4  2  0  0  0  0
  4  5  1  0  0  0  0
  5  6  1  0  0  0  0
  7  6  1  0  0  0  0
  8  7  1  0  0  0  0
  9  8  1  0  0  0  0
  9  5  2  0  0  0  0
 10  9  1  0  0  0  0
 11 10  2  0  0  0  0
 11  3  1  0  0  0  0
 12 11  1  0  0  0  0
 13 12  1  0  0  0  0
 13 14  1  0  0  0  0
 14 19  1  1  0  0  0
 14 15  1  0  0  0  0
 16 14  1  0  0  0  0
 17 18  1  0  0  0  0
 17 16  1  0  0  0  0
 19 18  1  6  0  0  0
 19 20  1  0  0  0  0
 20 21  1  0  0  0  0
 21 22  1  1  0  0  0
 22 23  1  0  0  0  0
 25 24  1  0  0  0  0
 25 26  2  0  0  0  0
 27 35  1  6  0  0  0
 27 25  1  0  0  0  0
 27 30  1  0  0  0  0
 28 27  1  0  0  0  0
 29 28  1  0  0  0  0
 31 30  1  0  0  0  0
 32 31  2  0  0  0  0
 33 31  1  0  0  0  0
 34 33  1  0  0  0  0
 35 36  1  0  0  0  0
 37 38  1  0  0  0  0
 37 36  1  0  0  0  0
 38 40  1  0  0  0  0
 39 38  1  0  0  0  0
 41 38  1  0  0  0  0
 41 42  1  0  0  0  0
M  END
>  <minimizedAffinity>
-6.78174353

$$$$

 OpenBabel12271915163D

 42 46  0  0  1  0  0  0  0  0999 V2000
   14.3150   65.9050   32.0450 C   0  0  1  0  0  0  0  0  0  0  0  0
   14.2520   67.0040   33.2250 C   0  0  1  0  0  0  0  0  0  0  0  0
   15.3740   68.0740   33.3270 C   0  0  0  0  0  0  0  0  0  0  0  0
   16.4090   68.1650   32.3440 C   0  0  0  0  0  0  0  0  0  0  0  0
   17.3720   69.1470   32.4560 C   0  0  0  0  0  0  0  0  0  0  0  0
   18.4080   69.2950   31.6100 O   0  0  0  0  0  0  0  0  0  0  0  0
   19.1970   70.2770   32.3790 C   0  0  0  0  0  0  0  0  0  0  0  0
   18.3490   70.9470   33.3870 O   0  0  0  0  0  0  0  0  0  0  0  0
   17.3240   70.0500   33.4390 C   0  0  0  0  0  0  0  0  0  0  0  0
   16.3450   70.0500   34.3650 C   0  0  0  0  0  0  0  0  0  0  0  0
   15.3290   69.0460   34.3420 C   0  0  0  0  0  0  0  0  0  0  0  0
   14.2840   69.1260   35.3950 C   0  0  0  0  0  0  0  0  0  0  0  0
   12.8850   68.9670   34.9530 C   0  0  0  0  0  0  0  0  0  0  0  0
   12.7480   69.0100   33.4230 N   0  0  2  0  0  0  0  0  0  0  0  0
   13.4610   69.6840   33.0430 H   0  0  0  0  0  0  0  0  0  0  0  0
   11.3660   69.3160   33.0460 C   0  0  0  0  0  0  0  0  0  0  0  0
   10.6710   67.9580   33.1480 C   0  0  0  0  0  0  0  0  0  0  0  0
   11.7310   66.8900   33.1590 C   0  0  0  0  0  0  0  0  0  0  0  0
   12.9970   67.6780   32.7810 C   0  0  2  0  0  0  0  0  0  0  0  0
   13.1060   67.7270   31.2540 C   0  0  0  0  0  0  0  0  0  0  0  0
   13.8490   66.7490   30.8850 C   0  0  1  0  0  0  0  0  0  0  0  0
   14.2500   66.4890   29.6200 O   0  0  0  0  0  0  0  0  0  0  0  0
   13.4880   67.2010   28.6260 C   0  0  0  0  0  0  0  0  0  0  0  0
   15.6550   65.2400   31.9170 O   0  0  0  0  0  0  0  0  0  0  0  0
   15.6170   63.9520   32.1730 C   0  0  0  0  0  0  0  0  0  0  0  0
   14.6950   63.3180   32.8650 O   0  0  0  0  0  0  0  0  0  0  0  0
   16.8530   63.1800   31.7290 C   0  0  2  0  0  0  0  0  0  0  0  0
   16.6380   62.5310   30.4380 O   0  0  0  0  0  0  0  0  0  0  0  0
   16.8650   63.1920   29.8020 H   0  0  0  0  0  0  0  0  0  0  0  0
   17.1260   62.1540   32.9150 C   0  0  0  0  0  0  0  0  0  0  0  0
   17.6200   60.7250   32.4810 C   0  0  0  0  0  0  0  0  0  0  0  0
   18.8330   60.4430   32.3350 O   0  0  0  0  0  0  0  0  0  0  0  0
   16.5770   59.9540   32.2450 O   0  0  0  0  0  0  0  0  0  0  0  0
   15.4380   60.1230   33.1910 C   0  0  0  0  0  0  0  0  0  0  0  0
   17.8970   64.2580   31.6540 C   0  0  0  0  0  0  0  0  0  0  0  0
   19.4330   63.8100   31.5650 C   0  0  0  0  0  0  0  0  0  0  0  0
   20.2030   64.4100   32.6990 C   0  0  0  0  0  0  0  0  0  0  0  0
   20.8920   63.3920   33.6680 C   0  0  0  0  0  0  0  0  0  0  0  0
   22.3160   63.7890   34.0850 C   0  0  0  0  0  0  0  0  0  0  0  0
   20.0130   63.3550   34.8580 C   0  0  0  0  0  0  0  0  0  0  0  0
   20.9360   62.0910   33.0810 O   0  0  0  0  0  0  0  0  0  0  0  0
   20.0950   61.6800   33.2650 H   0  0  0  0  0  0  0  0  0  0  0  0
  1 24  1  6  0  0  0
  1  2  1  0  0  0  0
  2 19  1  6  0  0  0
  2  3  1  0  0  0  0
  3 11  2  0  0  0  0
  4  5  2  0  0  0  0
  4  3  1  0  0  0  0
  5  9  1  0  0  0  0
  6  7  1  0  0  0  0
  6  5  1  0  0  0  0
  7  8  1  0  0  0  0
  8  9  1  0  0  0  0
  9 10  2  0  0  0  0
 11 10  1  0  0  0  0
 11 12  1  0  0  0  0
 13 12  1  0  0  0  0
 14 19  1  6  0  0  0
 14 13  1  0  0  0  0
 15 14  1  0  0  0  0
 16 17  1  0  0  0  0
 16 14  1  0  0  0  0
 17 18  1  0  0  0  0
 19 20  1  6  0  0  0
 19 18  1  0  0  0  0
 21 22  1  1  0  0  0
 21 20  1  0  0  0  0
 21  1  1  0  0  0  0
 23 22  1  0  0  0  0
 24 25  1  0  0  0  0
 25 26  2  0  0  0  0
 27 35  1  6  0  0  0
 27 25  1  0  0  0  0
 27 30  1  0  0  0  0
 28 27  1  0  0  0  0
 29 28  1  0  0  0  0
 31 30  1  0  0  0  0
 32 31  2  0  0  0  0
 33 31  1  0  0  0  0
 33 34  1  0  0  0  0
 36 35  1  0  0  0  0
 36 37  1  0  0  0  0
 37 38  1  0  0  0  0
 38 39  1  0  0  0  0
 38 40  1  0  0  0  0
 41 42  1  0  0  0  0
 41 38  1  0  0  0  0
M  END
>  <minimizedAffinity>
-6.7349143

$$$$

 OpenBabel12271915163D

 42 46  0  0  1  0  0  0  0  0999 V2000
   14.1310   65.3420   33.0190 C   0  0  1  0  0  0  0  0  0  0  0  0
   14.4200   66.9250   32.8880 C   0  0  1  0  0  0  0  0  0  0  0  0
   14.1460   67.6370   31.5350 C   0  0  0  0  0  0  0  0  0  0  0  0
   13.5570   66.9420   30.4320 C   0  0  0  0  0  0  0  0  0  0  0  0
   13.3050   67.6170   29.2550 C   0  0  0  0  0  0  0  0  0  0  0  0
   12.7910   67.0500   28.1490 O   0  0  0  0  0  0  0  0  0  0  0  0
   13.0170   68.1530   27.1960 C   0  0  0  0  0  0  0  0  0  0  0  0
   13.2350   69.4240   27.9180 O   0  0  0  0  0  0  0  0  0  0  0  0
   13.5530   68.9250   29.1450 C   0  0  0  0  0  0  0  0  0  0  0  0
   14.0600   69.6470   30.1650 C   0  0  0  0  0  0  0  0  0  0  0  0
   14.3810   69.0170   31.4050 C   0  0  0  0  0  0  0  0  0  0  0  0
   14.9270   69.8890   32.4780 C   0  0  0  0  0  0  0  0  0  0  0  0
   14.3470   69.7220   33.8250 C   0  0  0  0  0  0  0  0  0  0  0  0
   13.0860   68.8460   33.8140 N   0  0  2  0  0  0  0  0  0  0  0  0
   12.5650   69.0220   32.9170 H   0  0  0  0  0  0  0  0  0  0  0  0
   12.2970   69.0770   35.0270 C   0  0  0  0  0  0  0  0  0  0  0  0
   12.9940   68.1960   36.0650 C   0  0  0  0  0  0  0  0  0  0  0  0
   13.8550   67.2020   35.3330 C   0  0  0  0  0  0  0  0  0  0  0  0
   13.3970   67.3800   33.8750 C   0  0  2  0  0  0  0  0  0  0  0  0
   12.1900   66.4710   33.6260 C   0  0  0  0  0  0  0  0  0  0  0  0
   12.6280   65.3660   33.1420 C   0  0  1  0  0  0  0  0  0  0  0  0
   11.8720   64.3290   32.7180 O   0  0  0  0  0  0  0  0  0  0  0  0
   10.4570   64.5910   32.7930 C   0  0  0  0  0  0  0  0  0  0  0  0
   14.7180   64.5330   31.8990 O   0  0  0  0  0  0  0  0  0  0  0  0
   15.6320   63.6800   32.3040 C   0  0  0  0  0  0  0  0  0  0  0  0
   15.6770   63.0770   33.4730 O   0  0  0  0  0  0  0  0  0  0  0  0
   16.8090   63.5130   31.3520 C   0  0  2  0  0  0  0  0  0  0  0  0
   16.6090   62.3780   30.4530 O   0  0  0  0  0  0  0  0  0  0  0  0
   16.1190   62.7360   29.7290 H   0  0  0  0  0  0  0  0  0  0  0  0
   18.0710   63.3470   32.3090 C   0  0  0  0  0  0  0  0  0  0  0  0
   18.8240   61.9690   32.2130 C   0  0  0  0  0  0  0  0  0  0  0  0
   19.9550   61.8500   31.6860 O   0  0  0  0  0  0  0  0  0  0  0  0
   18.0520   61.0140   32.6950 O   0  0  0  0  0  0  0  0  0  0  0  0
   18.4350   59.6300   32.2950 C   0  0  0  0  0  0  0  0  0  0  0  0
   16.8190   64.8230   30.6160 C   0  0  0  0  0  0  0  0  0  0  0  0
   17.7900   65.9790   31.1520 C   0  0  0  0  0  0  0  0  0  0  0  0
   17.6610   67.1920   30.2880 C   0  0  0  0  0  0  0  0  0  0  0  0
   18.4530   68.4550   30.7640 C   0  0  0  0  0  0  0  0  0  0  0  0
   17.8980   69.7840   30.2260 C   0  0  0  0  0  0  0  0  0  0  0  0
   18.3460   68.4300   32.2400 C   0  0  0  0  0  0  0  0  0  0  0  0
   19.8290   68.3550   30.3950 O   0  0  0  0  0  0  0  0  0  0  0  0
   20.2580   67.8420   31.0770 H   0  0  0  0  0  0  0  0  0  0  0  0
  1 24  1  6  0  0  0
  1 21  1  0  0  0  0
  2  1  1  0  0  0  0
  2 19  1  1  0  0  0
  3  2  1  0  0  0  0
  4  3  2  0  0  0  0
  5  4  1  0  0  0  0
  6  5  1  0  0  0  0
  7  8  1  0  0  0  0
  7  6  1  0  0  0  0
  8  9  1  0  0  0  0
  9  5  2  0  0  0  0
  9 10  1  0  0  0  0
 10 11  2  0  0  0  0
 11  3  1  0  0  0  0
 11 12  1  0  0  0  0
 12 13  1  0  0  0  0
 14 13  1  0  0  0  0
 14 19  1  1  0  0  0
 14 16  1  0  0  0  0
 15 14  1  0  0  0  0
 16 17  1  0  0  0  0
 18 17  1  0  0  0  0
 19 20  1  6  0  0  0
 19 18  1  0  0  0  0
 21 22  1  6  0  0  0
 21 20  1  0  0  0  0
 22 23  1  0  0  0  0
 24 25  1  0  0  0  0
 25 26  2  0  0  0  0
 27 35  1  6  0  0  0
 27 25  1  0  0  0  0
 27 30  1  0  0  0  0
 28 27  1  0  0  0  0
 29 28  1  0  0  0  0
 31 30  1  0  0  0  0
 31 33  1  0  0  0  0
 32 31  2  0  0  0  0
 34 33  1  0  0  0  0
 35 36  1  0  0  0  0
 37 38  1  0  0  0  0
 37 36  1  0  0  0  0
 38 40  1  0  0  0  0
 39 38  1  0  0  0  0
 41 38  1  0  0  0  0
 41 42  1  0  0  0  0
M  END
>  <minimizedAffinity>
-6.68938637

$$$$

 OpenBabel12271915163D

 42 46  0  0  1  0  0  0  0  0999 V2000
   15.2670   70.4080   30.2010 C   0  0  1  0  0  0  0  0  0  0  0  0
   14.4080   69.5250   29.1570 C   0  0  1  0  0  0  0  0  0  0  0  0
   13.6280   68.2850   29.6740 C   0  0  0  0  0  0  0  0  0  0  0  0
   13.5780   67.9620   31.0670 C   0  0  0  0  0  0  0  0  0  0  0  0
   12.8520   66.8680   31.4890 C   0  0  0  0  0  0  0  0  0  0  0  0
   12.7710   66.4560   32.7670 O   0  0  0  0  0  0  0  0  0  0  0  0
   12.1270   65.1460   32.5490 C   0  0  0  0  0  0  0  0  0  0  0  0
   11.4880   65.0990   31.2170 O   0  0  0  0  0  0  0  0  0  0  0  0
   12.1480   66.1330   30.6230 C   0  0  0  0  0  0  0  0  0  0  0  0
   12.1130   66.4160   29.3050 C   0  0  0  0  0  0  0  0  0  0  0  0
   12.8650   67.5110   28.7820 C   0  0  0  0  0  0  0  0  0  0  0  0
   12.7620   67.7570   27.3200 C   0  0  0  0  0  0  0  0  0  0  0  0
   12.5470   69.1550   26.8980 C   0  0  0  0  0  0  0  0  0  0  0  0
   12.2030   70.0760   28.0790 N   0  0  2  0  0  0  0  0  0  0  0  0
   11.6340   69.5280   28.7740 H   0  0  0  0  0  0  0  0  0  0  0  0
   11.5560   71.2990   27.5970 C   0  0  0  0  0  0  0  0  0  0  0  0
   12.7390   72.1670   27.1640 C   0  0  0  0  0  0  0  0  0  0  0  0
   13.9860   71.6050   27.7890 C   0  0  0  0  0  0  0  0  0  0  0  0
   13.4210   70.5830   28.7920 C   0  0  2  0  0  0  0  0  0  0  0  0
   13.1230   71.3040   30.1100 C   0  0  0  0  0  0  0  0  0  0  0  0
   14.1520   71.1750   30.8660 C   0  0  1  0  0  0  0  0  0  0  0  0
   14.2580   71.6060   32.1430 O   0  0  0  0  0  0  0  0  0  0  0  0
   13.9000   72.9930   32.3050 C   0  0  0  0  0  0  0  0  0  0  0  0
   16.1600   69.5870   31.0860 O   0  0  0  0  0  0  0  0  0  0  0  0
   17.4360   69.8440   30.9090 C   0  0  0  0  0  0  0  0  0  0  0  0
   18.0460   70.0260   29.7570 O   0  0  0  0  0  0  0  0  0  0  0  0
   18.2790   69.7740   32.1760 C   0  0  2  0  0  0  0  0  0  0  0  0
   17.4960   69.2820   33.3080 O   0  0  0  0  0  0  0  0  0  0  0  0
   17.5670   68.3410   33.2510 H   0  0  0  0  0  0  0  0  0  0  0  0
   18.8160   71.2590   32.3760 C   0  0  0  0  0  0  0  0  0  0  0  0
   17.9620   72.1710   33.3320 C   0  0  0  0  0  0  0  0  0  0  0  0
   17.7840   71.9030   34.5440 O   0  0  0  0  0  0  0  0  0  0  0  0
   17.4430   73.1660   32.6400 O   0  0  0  0  0  0  0  0  0  0  0  0
   18.1090   73.4440   31.3350 C   0  0  0  0  0  0  0  0  0  0  0  0
   19.3710   68.8180   31.7860 C   0  0  0  0  0  0  0  0  0  0  0  0
   19.2590   67.3020   32.2910 C   0  0  0  0  0  0  0  0  0  0  0  0
   18.8520   66.4170   31.1560 C   0  0  0  0  0  0  0  0  0  0  0  0
   17.3390   66.0230   31.1080 C   0  0  0  0  0  0  0  0  0  0  0  0
   16.6440   66.3600   29.7790 C   0  0  0  0  0  0  0  0  0  0  0  0
   17.3250   64.5590   31.3220 C   0  0  0  0  0  0  0  0  0  0  0  0
   16.6210   66.6560   32.1680 O   0  0  0  0  0  0  0  0  0  0  0  0
   16.7290   66.1030   32.9390 H   0  0  0  0  0  0  0  0  0  0  0  0
  1 21  1  0  0  0  0
  1 24  1  1  0  0  0
  2 19  1  1  0  0  0
  2  3  1  0  0  0  0
  2  1  1  0  0  0  0
  3  4  2  0  0  0  0
  4  5  1  0  0  0  0
  5  6  1  0  0  0  0
  7  6  1  0  0  0  0
  8  7  1  0  0  0  0
  9  8  1  0  0  0  0
  9  5  2  0  0  0  0
 10  9  1  0  0  0  0
 11 10  2  0  0  0  0
 11  3  1  0  0  0  0
 12 11  1  0  0  0  0
 13 12  1  0  0  0  0
 13 14  1  0  0  0  0
 14 15  1  0  0  0  0
 14 19  1  1  0  0  0
 16 14  1  0  0  0  0
 17 16  1  0  0  0  0
 17 18  1  0  0  0  0
 19 18  1  6  0  0  0
 19 20  1  0  0  0  0
 20 21  1  0  0  0  0
 21 22  1  1  0  0  0
 22 23  1  0  0  0  0
 25 24  1  0  0  0  0
 25 27  1  0  0  0  0
 26 25  2  0  0  0  0
 27 35  1  6  0  0  0
 27 30  1  0  0  0  0
 27 28  1  0  0  0  0
 29 28  1  0  0  0  0
 30 31  1  0  0  0  0
 31 32  2  0  0  0  0
 33 31  1  0  0  0  0
 34 33  1  0  0  0  0
 35 36  1  0  0  0  0
 37 36  1  0  0  0  0
 38 37  1  0  0  0  0
 38 40  1  0  0  0  0
 38 41  1  0  0  0  0
 39 38  1  0  0  0  0
 41 42  1  0  0  0  0
M  END
>  <minimizedAffinity>
-6.61619902

$$$$
