
 OpenBabel12271915233D

 32 35  0  0  1  0  0  0  0  0999 V2000
   16.4870   65.3510   31.1200 C   0  0  1  0  0  0  0  0  0  0  0  0
   15.1970   65.6630   30.4080 N   0  0  0  0  0  0  0  0  0  0  0  0
   14.5780   64.8430   30.3700 H   0  0  0  0  0  0  0  0  0  0  0  0
   15.3910   65.9600   29.4390 H   0  0  0  0  0  0  0  0  0  0  0  0
   14.6620   66.4260   30.8570 H   0  0  0  0  0  0  0  0  0  0  0  0
   17.0150   63.9610   30.7120 C   0  0  0  0  0  0  0  0  0  0  0  0
   17.5420   63.1910   31.8580 C   0  0  0  0  0  0  0  0  0  0  0  0
   18.8590   62.6430   31.9680 C   0  0  0  0  0  0  0  0  0  0  0  0
   20.0020   62.6560   31.1280 C   0  0  0  0  0  0  0  0  0  0  0  0
   21.1440   61.9960   31.5450 C   0  0  0  0  0  0  0  0  0  0  0  0
   21.1740   61.3160   32.7580 C   0  0  0  0  0  0  0  0  0  0  0  0
   20.0650   61.2780   33.5960 C   0  0  0  0  0  0  0  0  0  0  0  0
   18.9070   61.9620   33.1780 C   0  0  0  0  0  0  0  0  0  0  0  0
   17.6760   62.0790   33.7790 N   0  0  0  0  0  0  0  0  0  0  0  0
   17.4320   61.6360   34.6630 H   0  0  0  0  0  0  0  0  0  0  0  0
   16.8490   62.8370   33.0050 C   0  0  0  0  0  0  0  0  0  0  0  0
   17.5090   66.4080   30.7330 C   0  0  0  0  0  0  0  0  0  0  0  0
   18.0950   66.8740   31.9620 O   0  0  0  0  0  0  0  0  0  0  0  0
   19.4660   66.9480   31.9250 C   0  0  0  0  0  0  0  0  0  0  0  0
   20.3250   65.9100   32.2800 C   0  0  0  0  0  0  0  0  0  0  0  0
   21.7010   66.0730   32.2580 C   0  0  0  0  0  0  0  0  0  0  0  0
   22.1720   67.3440   31.8520 C   0  0  0  0  0  0  0  0  0  0  0  0
   21.3870   68.3750   31.4880 N   0  0  0  0  0  0  0  0  0  0  0  0
   20.0530   68.1420   31.5310 C   0  0  0  0  0  0  0  0  0  0  0  0
   22.6240   65.0150   32.6380 C   0  0  0  0  0  0  0  0  0  0  0  0
   23.8370   64.7770   32.0460 C   0  0  0  0  0  0  0  0  0  0  0  0
   24.7430   63.7110   32.4460 C   0  0  0  0  0  0  0  0  0  0  0  0
   24.3560   62.8900   33.5320 C   0  0  0  0  0  0  0  0  0  0  0  0
   25.2110   61.8780   33.9140 C   0  0  0  0  0  0  0  0  0  0  0  0
   26.3940   61.6090   33.3330 N   0  0  0  0  0  0  0  0  0  0  0  0
   26.7380   62.4150   32.2910 C   0  0  0  0  0  0  0  0  0  0  0  0
   25.9600   63.4550   31.8260 C   0  0  0  0  0  0  0  0  0  0  0  0
  1  6  1  6  0  0  0
  2  5  1  0  0  0  0
  2  1  1  0  0  0  0
  3  2  1  0  0  0  0
  4  2  1  0  0  0  0
  6  7  1  0  0  0  0
  7  8  1  0  0  0  0
  7 16  2  0  0  0  0
  8 13  2  0  0  0  0
  9 10  2  0  0  0  0
  9  8  1  0  0  0  0
 10 11  1  0  0  0  0
 11 12  2  0  0  0  0
 13 12  1  0  0  0  0
 13 14  1  0  0  0  0
 14 15  1  0  0  0  0
 16 14  1  0  0  0  0
 17  1  1  0  0  0  0
 17 18  1  0  0  0  0
 19 18  1  0  0  0  0
 19 20  2  0  0  0  0
 21 20  1  0  0  0  0
 21 25  1  0  0  0  0
 22 21  2  0  0  0  0
 23 24  2  0  0  0  0
 23 22  1  0  0  0  0
 24 19  1  0  0  0  0
 26 27  1  0  0  0  0
 26 25  2  0  0  0  0
 27 28  2  0  0  0  0
 28 29  1  0  0  0  0
 30 29  2  0  0  0  0
 31 30  1  0  0  0  0
 32 31  2  0  0  0  0
 32 27  1  0  0  0  0
M  END
>  <minimizedAffinity>
-8.36925793

$$$$

 OpenBabel12271915233D

 32 35  0  0  1  0  0  0  0  0999 V2000
   23.9500   61.6770   35.3050 C   0  0  1  0  0  0  0  0  0  0  0  0
   24.7130   60.3790   35.2900 N   0  0  0  0  0  0  0  0  0  0  0  0
   25.5560   60.4290   35.8750 H   0  0  0  0  0  0  0  0  0  0  0  0
   25.0060   60.1520   34.3270 H   0  0  0  0  0  0  0  0  0  0  0  0
   24.1530   59.5790   35.6320 H   0  0  0  0  0  0  0  0  0  0  0  0
   24.9140   62.8790   35.2280 C   0  0  0  0  0  0  0  0  0  0  0  0
   25.1460   63.3370   33.8420 C   0  0  0  0  0  0  0  0  0  0  0  0
   24.5440   64.4760   33.2210 C   0  0  0  0  0  0  0  0  0  0  0  0
   23.6340   65.4700   33.6650 C   0  0  0  0  0  0  0  0  0  0  0  0
   23.2340   66.4530   32.7770 C   0  0  0  0  0  0  0  0  0  0  0  0
   23.7000   66.4650   31.4670 C   0  0  0  0  0  0  0  0  0  0  0  0
   24.5840   65.4970   31.0030 C   0  0  0  0  0  0  0  0  0  0  0  0
   25.0020   64.5050   31.9100 C   0  0  0  0  0  0  0  0  0  0  0  0
   25.8390   63.4290   31.7300 N   0  0  0  0  0  0  0  0  0  0  0  0
   26.2810   63.1950   30.8430 H   0  0  0  0  0  0  0  0  0  0  0  0
   25.9530   62.7280   32.8940 C   0  0  0  0  0  0  0  0  0  0  0  0
   23.0270   61.6980   34.0980 C   0  0  0  0  0  0  0  0  0  0  0  0
   21.8040   62.3190   34.5340 O   0  0  0  0  0  0  0  0  0  0  0  0
   21.0170   62.7710   33.5030 C   0  0  0  0  0  0  0  0  0  0  0  0
   20.5420   64.0760   33.3820 C   0  0  0  0  0  0  0  0  0  0  0  0
   19.7160   64.4490   32.3340 C   0  0  0  0  0  0  0  0  0  0  0  0
   19.3930   63.4340   31.4030 C   0  0  0  0  0  0  0  0  0  0  0  0
   19.8330   62.1640   31.4670 N   0  0  0  0  0  0  0  0  0  0  0  0
   20.6390   61.8720   32.5160 C   0  0  0  0  0  0  0  0  0  0  0  0
   19.1920   65.7980   32.1890 C   0  0  0  0  0  0  0  0  0  0  0  0
   19.8420   66.8340   31.5680 C   0  0  0  0  0  0  0  0  0  0  0  0
   19.2950   68.1740   31.4350 C   0  0  0  0  0  0  0  0  0  0  0  0
   19.5590   69.1010   32.4710 C   0  0  0  0  0  0  0  0  0  0  0  0
   19.0430   70.3740   32.3490 C   0  0  0  0  0  0  0  0  0  0  0  0
   18.3010   70.8070   31.3140 N   0  0  0  0  0  0  0  0  0  0  0  0
   18.0640   69.8940   30.3330 C   0  0  0  0  0  0  0  0  0  0  0  0
   18.5310   68.5960   30.3530 C   0  0  0  0  0  0  0  0  0  0  0  0
  1 17  1  6  0  0  0
  2  1  1  0  0  0  0
  2  5  1  0  0  0  0
  2  3  1  0  0  0  0
  4  2  1  0  0  0  0
  6  1  1  0  0  0  0
  7  6  1  0  0  0  0
  8  9  1  0  0  0  0
  8  7  1  0  0  0  0
 10  9  2  0  0  0  0
 11 10  1  0  0  0  0
 12 11  2  0  0  0  0
 12 13  1  0  0  0  0
 13  8  2  0  0  0  0
 14 13  1  0  0  0  0
 14 16  1  0  0  0  0
 15 14  1  0  0  0  0
 16  7  2  0  0  0  0
 17 18  1  0  0  0  0
 19 18  1  0  0  0  0
 20 19  1  0  0  0  0
 21 20  2  0  0  0  0
 22 23  2  0  0  0  0
 22 21  1  0  0  0  0
 23 24  1  0  0  0  0
 24 19  2  0  0  0  0
 25 21  1  0  0  0  0
 26 25  2  0  0  0  0
 27 26  1  0  0  0  0
 27 28  2  0  0  0  0
 29 28  1  0  0  0  0
 30 29  2  0  0  0  0
 31 32  2  0  0  0  0
 31 30  1  0  0  0  0
 32 27  1  0  0  0  0
M  END
>  <minimizedAffinity>
-8.13171387

$$$$

 OpenBabel12271915233D

 32 35  0  0  1  0  0  0  0  0999 V2000
   21.6900   61.2710   34.0090 C   0  0  1  0  0  0  0  0  0  0  0  0
   20.9000   62.3410   34.7150 N   0  0  0  0  0  0  0  0  0  0  0  0
   19.9000   62.2880   34.4840 H   0  0  0  0  0  0  0  0  0  0  0  0
   21.2420   63.2750   34.4360 H   0  0  0  0  0  0  0  0  0  0  0  0
   20.9770   62.2870   35.7450 H   0  0  0  0  0  0  0  0  0  0  0  0
   21.2060   61.1030   32.5540 C   0  0  0  0  0  0  0  0  0  0  0  0
   19.7330   61.0720   32.4420 C   0  0  0  0  0  0  0  0  0  0  0  0
   18.8980   62.1560   32.0250 C   0  0  0  0  0  0  0  0  0  0  0  0
   19.1530   63.4840   31.6000 C   0  0  0  0  0  0  0  0  0  0  0  0
   18.0830   64.2980   31.2720 C   0  0  0  0  0  0  0  0  0  0  0  0
   16.7760   63.8330   31.3700 C   0  0  0  0  0  0  0  0  0  0  0  0
   16.4960   62.5390   31.7950 C   0  0  0  0  0  0  0  0  0  0  0  0
   17.5860   61.7070   32.1150 C   0  0  0  0  0  0  0  0  0  0  0  0
   17.6130   60.4110   32.5730 N   0  0  0  0  0  0  0  0  0  0  0  0
   16.7790   59.8590   32.7650 H   0  0  0  0  0  0  0  0  0  0  0  0
   18.9020   60.0070   32.7540 C   0  0  0  0  0  0  0  0  0  0  0  0
   23.1520   61.6850   34.0050 C   0  0  0  0  0  0  0  0  0  0  0  0
   23.4380   62.1500   32.6730 O   0  0  0  0  0  0  0  0  0  0  0  0
   23.7320   63.4900   32.6090 C   0  0  0  0  0  0  0  0  0  0  0  0
   22.8060   64.4910   32.3210 C   0  0  0  0  0  0  0  0  0  0  0  0
   23.1860   65.8210   32.2310 C   0  0  0  0  0  0  0  0  0  0  0  0
   24.5570   66.0940   32.4520 C   0  0  0  0  0  0  0  0  0  0  0  0
   25.4880   65.1680   32.7450 N   0  0  0  0  0  0  0  0  0  0  0  0
   25.0440   63.8900   32.8200 C   0  0  0  0  0  0  0  0  0  0  0  0
   22.2470   66.8870   31.9160 C   0  0  0  0  0  0  0  0  0  0  0  0
   20.8820   66.7650   31.9360 C   0  0  0  0  0  0  0  0  0  0  0  0
   19.9640   67.8480   31.6180 C   0  0  0  0  0  0  0  0  0  0  0  0
   19.2260   67.7550   30.4140 C   0  0  0  0  0  0  0  0  0  0  0  0
   18.3540   68.7790   30.1100 C   0  0  0  0  0  0  0  0  0  0  0  0
   18.1500   69.8690   30.8720 N   0  0  0  0  0  0  0  0  0  0  0  0
   18.8740   69.9300   32.0220 C   0  0  0  0  0  0  0  0  0  0  0  0
   19.7720   68.9630   32.4250 C   0  0  0  0  0  0  0  0  0  0  0  0
  1  6  1  6  0  0  0
  1  2  1  0  0  0  0
  2  5  1  0  0  0  0
  3  2  1  0  0  0  0
  4  2  1  0  0  0  0
  7  6  1  0  0  0  0
  7 16  2  0  0  0  0
  8 13  1  0  0  0  0
  8  7  1  0  0  0  0
  9  8  2  0  0  0  0
 10 11  2  0  0  0  0
 10  9  1  0  0  0  0
 11 12  1  0  0  0  0
 12 13  2  0  0  0  0
 13 14  1  0  0  0  0
 14 16  1  0  0  0  0
 14 15  1  0  0  0  0
 17  1  1  0  0  0  0
 18 17  1  0  0  0  0
 19 18  1  0  0  0  0
 19 24  2  0  0  0  0
 20 19  1  0  0  0  0
 21 20  2  0  0  0  0
 21 22  1  0  0  0  0
 22 23  2  0  0  0  0
 23 24  1  0  0  0  0
 25 26  2  0  0  0  0
 25 21  1  0  0  0  0
 27 26  1  0  0  0  0
 27 32  2  0  0  0  0
 28 27  1  0  0  0  0
 29 28  2  0  0  0  0
 29 30  1  0  0  0  0
 30 31  2  0  0  0  0
 31 32  1  0  0  0  0
M  END
>  <minimizedAffinity>
-8.05424881

$$$$

 OpenBabel12271915233D

 32 35  0  0  1  0  0  0  0  0999 V2000
   23.1810   63.8280   33.1830 C   0  0  1  0  0  0  0  0  0  0  0  0
   23.1940   65.2390   32.6560 N   0  0  0  0  0  0  0  0  0  0  0  0
   24.1470   65.6240   32.6290 H   0  0  0  0  0  0  0  0  0  0  0  0
   22.6220   65.8480   33.2610 H   0  0  0  0  0  0  0  0  0  0  0  0
   22.8090   65.3160   31.6990 H   0  0  0  0  0  0  0  0  0  0  0  0
   24.1440   63.6810   34.3790 C   0  0  0  0  0  0  0  0  0  0  0  0
   25.1130   62.5800   34.2000 C   0  0  0  0  0  0  0  0  0  0  0  0
   26.0540   62.4550   33.1300 C   0  0  0  0  0  0  0  0  0  0  0  0
   26.3720   63.2550   32.0030 C   0  0  0  0  0  0  0  0  0  0  0  0
   27.3560   62.8210   31.1330 C   0  0  0  0  0  0  0  0  0  0  0  0
   28.0160   61.6150   31.3440 C   0  0  0  0  0  0  0  0  0  0  0  0
   27.7170   60.8060   32.4350 C   0  0  0  0  0  0  0  0  0  0  0  0
   26.7250   61.2540   33.3280 C   0  0  0  0  0  0  0  0  0  0  0  0
   26.2150   60.6660   34.4610 N   0  0  0  0  0  0  0  0  0  0  0  0
   26.5080   59.7550   34.8080 H   0  0  0  0  0  0  0  0  0  0  0  0
   25.2570   61.4650   35.0100 C   0  0  0  0  0  0  0  0  0  0  0  0
   21.7670   63.5050   33.6360 C   0  0  0  0  0  0  0  0  0  0  0  0
   21.1250   62.8520   32.5260 O   0  0  0  0  0  0  0  0  0  0  0  0
   19.9570   63.4560   32.1320 C   0  0  0  0  0  0  0  0  0  0  0  0
   19.8120   64.8220   31.8950 C   0  0  0  0  0  0  0  0  0  0  0  0
   18.5890   65.3680   31.5400 C   0  0  0  0  0  0  0  0  0  0  0  0
   17.5100   64.4600   31.4300 C   0  0  0  0  0  0  0  0  0  0  0  0
   17.5970   63.1330   31.6350 N   0  0  0  0  0  0  0  0  0  0  0  0
   18.8240   62.6700   31.9760 C   0  0  0  0  0  0  0  0  0  0  0  0
   18.4030   66.7910   31.3020 C   0  0  0  0  0  0  0  0  0  0  0  0
   18.9220   67.7950   32.0780 C   0  0  0  0  0  0  0  0  0  0  0  0
   18.7220   69.2110   31.8180 C   0  0  0  0  0  0  0  0  0  0  0  0
   17.9870   69.5720   30.6630 C   0  0  0  0  0  0  0  0  0  0  0  0
   17.7940   70.9140   30.4130 C   0  0  0  0  0  0  0  0  0  0  0  0
   18.2530   71.9160   31.1850 N   0  0  0  0  0  0  0  0  0  0  0  0
   18.9560   71.5380   32.2880 C   0  0  0  0  0  0  0  0  0  0  0  0
   19.2080   70.2260   32.6340 C   0  0  0  0  0  0  0  0  0  0  0  0
  1 17  1  1  0  0  0
  1  6  1  0  0  0  0
  2  1  1  0  0  0  0
  2  4  1  0  0  0  0
  3  2  1  0  0  0  0
  5  2  1  0  0  0  0
  7  6  1  0  0  0  0
  7 16  2  0  0  0  0
  8 13  1  0  0  0  0
  8  7  1  0  0  0  0
  9  8  2  0  0  0  0
 10 11  2  0  0  0  0
 10  9  1  0  0  0  0
 11 12  1  0  0  0  0
 12 13  2  0  0  0  0
 13 14  1  0  0  0  0
 14 15  1  0  0  0  0
 14 16  1  0  0  0  0
 18 17  1  0  0  0  0
 19 18  1  0  0  0  0
 20 19  2  0  0  0  0
 21 20  1  0  0  0  0
 22 21  2  0  0  0  0
 22 23  1  0  0  0  0
 23 24  2  0  0  0  0
 24 19  1  0  0  0  0
 25 21  1  0  0  0  0
 25 26  2  0  0  0  0
 27 26  1  0  0  0  0
 27 32  2  0  0  0  0
 28 27  1  0  0  0  0
 29 28  2  0  0  0  0
 29 30  1  0  0  0  0
 30 31  2  0  0  0  0
 31 32  1  0  0  0  0
M  END
>  <minimizedAffinity>
-7.98167467

$$$$

 OpenBabel12271915233D

 32 35  0  0  1  0  0  0  0  0999 V2000
   20.3730   61.5960   33.6630 C   0  0  1  0  0  0  0  0  0  0  0  0
   21.1140   61.0230   32.4840 N   0  0  0  0  0  0  0  0  0  0  0  0
   22.0810   60.7760   32.7290 H   0  0  0  0  0  0  0  0  0  0  0  0
   21.1460   61.7120   31.7160 H   0  0  0  0  0  0  0  0  0  0  0  0
   20.6700   60.1690   32.1050 H   0  0  0  0  0  0  0  0  0  0  0  0
   21.2740   62.5620   34.4590 C   0  0  0  0  0  0  0  0  0  0  0  0
   22.7090   62.2300   34.3430 C   0  0  0  0  0  0  0  0  0  0  0  0
   23.6680   62.9150   33.5320 C   0  0  0  0  0  0  0  0  0  0  0  0
   23.5990   64.0370   32.6670 C   0  0  0  0  0  0  0  0  0  0  0  0
   24.7450   64.4420   32.0060 C   0  0  0  0  0  0  0  0  0  0  0  0
   25.9450   63.7550   32.1700 C   0  0  0  0  0  0  0  0  0  0  0  0
   26.0370   62.6460   33.0030 C   0  0  0  0  0  0  0  0  0  0  0  0
   24.8740   62.2430   33.6860 C   0  0  0  0  0  0  0  0  0  0  0  0
   24.6650   61.1900   34.5450 N   0  0  0  0  0  0  0  0  0  0  0  0
   25.3820   60.5120   34.7970 H   0  0  0  0  0  0  0  0  0  0  0  0
   23.3680   61.1830   34.9660 C   0  0  0  0  0  0  0  0  0  0  0  0
   19.1650   62.3550   33.1390 C   0  0  0  0  0  0  0  0  0  0  0  0
   19.6130   63.0780   31.9780 O   0  0  0  0  0  0  0  0  0  0  0  0
   18.7910   64.1210   31.6270 C   0  0  0  0  0  0  0  0  0  0  0  0
   19.0700   65.4650   31.8710 C   0  0  0  0  0  0  0  0  0  0  0  0
   18.1720   66.4620   31.5260 C   0  0  0  0  0  0  0  0  0  0  0  0
   16.9700   66.0340   30.9130 C   0  0  0  0  0  0  0  0  0  0  0  0
   16.6580   64.7530   30.6440 N   0  0  0  0  0  0  0  0  0  0  0  0
   17.5840   63.8330   31.0060 C   0  0  0  0  0  0  0  0  0  0  0  0
   18.4260   67.8710   31.7820 C   0  0  0  0  0  0  0  0  0  0  0  0
   17.6590   68.6770   32.5840 C   0  0  0  0  0  0  0  0  0  0  0  0
   17.9360   70.0850   32.8240 C   0  0  0  0  0  0  0  0  0  0  0  0
   18.8720   70.7270   31.9800 C   0  0  0  0  0  0  0  0  0  0  0  0
   19.1370   72.0610   32.2040 C   0  0  0  0  0  0  0  0  0  0  0  0
   18.5710   72.8070   33.1700 N   0  0  0  0  0  0  0  0  0  0  0  0
   17.6750   72.1620   33.9660 C   0  0  0  0  0  0  0  0  0  0  0  0
   17.3350   70.8320   33.8310 C   0  0  0  0  0  0  0  0  0  0  0  0
  1 17  1  6  0  0  0
  1  6  1  0  0  0  0
  2  3  1  0  0  0  0
  2  1  1  0  0  0  0
  4  2  1  0  0  0  0
  5  2  1  0  0  0  0
  7  6  1  0  0  0  0
  7 16  2  0  0  0  0
  8 13  1  0  0  0  0
  8  7  1  0  0  0  0
  9  8  2  0  0  0  0
 10 11  2  0  0  0  0
 10  9  1  0  0  0  0
 11 12  1  0  0  0  0
 12 13  2  0  0  0  0
 13 14  1  0  0  0  0
 14 15  1  0  0  0  0
 14 16  1  0  0  0  0
 18 17  1  0  0  0  0
 19 20  1  0  0  0  0
 19 18  1  0  0  0  0
 21 25  1  0  0  0  0
 21 20  2  0  0  0  0
 22 21  1  0  0  0  0
 23 22  2  0  0  0  0
 23 24  1  0  0  0  0
 24 19  2  0  0  0  0
 25 26  2  0  0  0  0
 26 27  1  0  0  0  0
 27 32  2  0  0  0  0
 28 29  2  0  0  0  0
 28 27  1  0  0  0  0
 29 30  1  0  0  0  0
 30 31  2  0  0  0  0
 32 31  1  0  0  0  0
M  END
>  <minimizedAffinity>
-7.96450186

$$$$

 OpenBabel12271915233D

 32 35  0  0  1  0  0  0  0  0999 V2000
   23.7960   66.4290   31.8860 C   0  0  1  0  0  0  0  0  0  0  0  0
   24.4560   67.7770   31.7660 N   0  0  0  0  0  0  0  0  0  0  0  0
   25.4400   67.7450   32.0630 H   0  0  0  0  0  0  0  0  0  0  0  0
   23.9660   68.4650   32.3590 H   0  0  0  0  0  0  0  0  0  0  0  0
   24.4440   68.1480   30.8000 H   0  0  0  0  0  0  0  0  0  0  0  0
   24.2210   65.7270   33.1920 C   0  0  0  0  0  0  0  0  0  0  0  0
   25.0190   64.5060   32.9510 C   0  0  0  0  0  0  0  0  0  0  0  0
   25.0460   63.3420   33.7820 C   0  0  0  0  0  0  0  0  0  0  0  0
   24.3810   62.9750   34.9800 C   0  0  0  0  0  0  0  0  0  0  0  0
   24.6560   61.7430   35.5450 C   0  0  0  0  0  0  0  0  0  0  0  0
   25.5770   60.8780   34.9610 C   0  0  0  0  0  0  0  0  0  0  0  0
   26.2500   61.2170   33.7930 C   0  0  0  0  0  0  0  0  0  0  0  0
   25.9610   62.4660   33.2110 C   0  0  0  0  0  0  0  0  0  0  0  0
   26.4770   63.0670   32.0870 N   0  0  0  0  0  0  0  0  0  0  0  0
   27.2010   62.6510   31.5030 H   0  0  0  0  0  0  0  0  0  0  0  0
   25.9020   64.2890   31.9060 C   0  0  0  0  0  0  0  0  0  0  0  0
   22.2910   66.6380   31.8960 C   0  0  0  0  0  0  0  0  0  0  0  0
   21.7210   65.4430   32.4600 O   0  0  0  0  0  0  0  0  0  0  0  0
   20.3850   65.2850   32.1810 C   0  0  0  0  0  0  0  0  0  0  0  0
   19.6700   64.1040   32.3700 C   0  0  0  0  0  0  0  0  0  0  0  0
   18.3310   64.0070   32.0260 C   0  0  0  0  0  0  0  0  0  0  0  0
   17.7430   65.1730   31.4810 C   0  0  0  0  0  0  0  0  0  0  0  0
   18.3830   66.3400   31.2890 N   0  0  0  0  0  0  0  0  0  0  0  0
   19.6880   66.3620   31.6510 C   0  0  0  0  0  0  0  0  0  0  0  0
   17.5630   62.7840   32.1960 C   0  0  0  0  0  0  0  0  0  0  0  0
   18.0920   61.5200   32.2410 C   0  0  0  0  0  0  0  0  0  0  0  0
   17.3010   60.3120   32.4130 C   0  0  0  0  0  0  0  0  0  0  0  0
   15.9050   60.4590   32.5970 C   0  0  0  0  0  0  0  0  0  0  0  0
   15.1510   59.3160   32.7600 C   0  0  0  0  0  0  0  0  0  0  0  0
   15.6410   58.0630   32.7580 N   0  0  0  0  0  0  0  0  0  0  0  0
   16.9850   57.9540   32.5790 C   0  0  0  0  0  0  0  0  0  0  0  0
   17.8340   59.0290   32.4060 C   0  0  0  0  0  0  0  0  0  0  0  0
  1 17  1  1  0  0  0
  1  6  1  0  0  0  0
  2  1  1  0  0  0  0
  2  3  1  0  0  0  0
  2  4  1  0  0  0  0
  5  2  1  0  0  0  0
  7  6  1  0  0  0  0
  7  8  1  0  0  0  0
  8  9  1  0  0  0  0
  9 10  2  0  0  0  0
 11 10  1  0  0  0  0
 12 11  2  0  0  0  0
 13  8  2  0  0  0  0
 13 12  1  0  0  0  0
 14 13  1  0  0  0  0
 15 14  1  0  0  0  0
 16 14  1  0  0  0  0
 16  7  2  0  0  0  0
 17 18  1  0  0  0  0
 19 20  1  0  0  0  0
 19 18  1  0  0  0  0
 21 25  1  0  0  0  0
 21 20  2  0  0  0  0
 22 21  1  0  0  0  0
 23 22  2  0  0  0  0
 23 24  1  0  0  0  0
 24 19  2  0  0  0  0
 25 26  2  0  0  0  0
 26 27  1  0  0  0  0
 27 28  1  0  0  0  0
 28 29  2  0  0  0  0
 30 29  1  0  0  0  0
 31 30  2  0  0  0  0
 32 27  2  0  0  0  0
 32 31  1  0  0  0  0
M  END
>  <minimizedAffinity>
-7.91860294

$$$$

 OpenBabel12271915233D

 32 35  0  0  1  0  0  0  0  0999 V2000
   16.2270   63.6130   32.7440 C   0  0  1  0  0  0  0  0  0  0  0  0
   14.9190   64.2270   33.1680 N   0  0  0  0  0  0  0  0  0  0  0  0
   14.5840   63.8290   34.0540 H   0  0  0  0  0  0  0  0  0  0  0  0
   14.1980   64.0570   32.4490 H   0  0  0  0  0  0  0  0  0  0  0  0
   14.9780   65.2520   33.2990 H   0  0  0  0  0  0  0  0  0  0  0  0
   16.2230   62.0910   32.9920 C   0  0  0  0  0  0  0  0  0  0  0  0
   17.5400   61.4680   32.7420 C   0  0  0  0  0  0  0  0  0  0  0  0
   18.7550   61.7640   33.4370 C   0  0  0  0  0  0  0  0  0  0  0  0
   19.0890   62.6390   34.5010 C   0  0  0  0  0  0  0  0  0  0  0  0
   20.4020   62.6910   34.9360 C   0  0  0  0  0  0  0  0  0  0  0  0
   21.3850   61.9110   34.3340 C   0  0  0  0  0  0  0  0  0  0  0  0
   21.0870   61.0530   33.2820 C   0  0  0  0  0  0  0  0  0  0  0  0
   19.7480   60.9910   32.8490 C   0  0  0  0  0  0  0  0  0  0  0  0
   19.1730   60.2610   31.8350 N   0  0  0  0  0  0  0  0  0  0  0  0
   19.6920   59.6390   31.2180 H   0  0  0  0  0  0  0  0  0  0  0  0
   17.8360   60.5220   31.7740 C   0  0  0  0  0  0  0  0  0  0  0  0
   16.4140   63.8770   31.2590 C   0  0  0  0  0  0  0  0  0  0  0  0
   16.4790   65.3060   31.1060 O   0  0  0  0  0  0  0  0  0  0  0  0
   17.7050   65.8390   31.4220 C   0  0  0  0  0  0  0  0  0  0  0  0
   18.8560   65.0900   31.6610 C   0  0  0  0  0  0  0  0  0  0  0  0
   20.0510   65.6960   32.0170 C   0  0  0  0  0  0  0  0  0  0  0  0
   20.0270   67.1080   32.1180 C   0  0  0  0  0  0  0  0  0  0  0  0
   18.9480   67.8780   31.8870 N   0  0  0  0  0  0  0  0  0  0  0  0
   17.8170   67.2170   31.5400 C   0  0  0  0  0  0  0  0  0  0  0  0
   21.2640   64.9420   32.2870 C   0  0  0  0  0  0  0  0  0  0  0  0
   22.5280   65.4720   32.3310 C   0  0  0  0  0  0  0  0  0  0  0  0
   23.7270   64.6960   32.6060 C   0  0  0  0  0  0  0  0  0  0  0  0
   23.9100   64.2070   33.9210 C   0  0  0  0  0  0  0  0  0  0  0  0
   25.0440   63.4690   34.1850 C   0  0  0  0  0  0  0  0  0  0  0  0
   25.9990   63.1760   33.2840 N   0  0  0  0  0  0  0  0  0  0  0  0
   25.7960   63.6590   32.0280 C   0  0  0  0  0  0  0  0  0  0  0  0
   24.6980   64.4070   31.6540 C   0  0  0  0  0  0  0  0  0  0  0  0
  1 17  1  6  0  0  0
  1  6  1  0  0  0  0
  1  2  1  0  0  0  0
  2  5  1  0  0  0  0
  2  3  1  0  0  0  0
  4  2  1  0  0  0  0
  7  6  1  0  0  0  0
  7  8  1  0  0  0  0
  8  9  2  0  0  0  0
  9 10  1  0  0  0  0
 11 10  2  0  0  0  0
 12 11  1  0  0  0  0
 13 12  2  0  0  0  0
 13  8  1  0  0  0  0
 14 13  1  0  0  0  0
 15 14  1  0  0  0  0
 16 14  1  0  0  0  0
 16  7  2  0  0  0  0
 18 17  1  0  0  0  0
 18 19  1  0  0  0  0
 19 24  2  0  0  0  0
 19 20  1  0  0  0  0
 20 21  2  0  0  0  0
 21 22  1  0  0  0  0
 21 25  1  0  0  0  0
 23 22  2  0  0  0  0
 24 23  1  0  0  0  0
 25 26  2  0  0  0  0
 26 27  1  0  0  0  0
 27 28  2  0  0  0  0
 28 29  1  0  0  0  0
 30 29  2  0  0  0  0
 31 30  1  0  0  0  0
 32 31  2  0  0  0  0
 32 27  1  0  0  0  0
M  END
>  <minimizedAffinity>
-7.88738298

$$$$

 OpenBabel12271915233D

 32 35  0  0  1  0  0  0  0  0999 V2000
   22.6470   62.6710   34.2340 C   0  0  1  0  0  0  0  0  0  0  0  0
   22.4500   61.1940   34.4490 N   0  0  0  0  0  0  0  0  0  0  0  0
   22.7960   60.8960   35.3700 H   0  0  0  0  0  0  0  0  0  0  0  0
   22.9610   60.6600   33.7290 H   0  0  0  0  0  0  0  0  0  0  0  0
   21.4580   60.9070   34.3900 H   0  0  0  0  0  0  0  0  0  0  0  0
   24.0250   63.1220   34.7620 C   0  0  0  0  0  0  0  0  0  0  0  0
   25.1040   62.1700   34.4260 C   0  0  0  0  0  0  0  0  0  0  0  0
   25.9790   62.2560   33.2970 C   0  0  0  0  0  0  0  0  0  0  0  0
   26.1230   63.1840   32.2350 C   0  0  0  0  0  0  0  0  0  0  0  0
   27.0910   62.9530   31.2730 C   0  0  0  0  0  0  0  0  0  0  0  0
   27.9030   61.8250   31.3330 C   0  0  0  0  0  0  0  0  0  0  0  0
   27.7760   60.8940   32.3570 C   0  0  0  0  0  0  0  0  0  0  0  0
   26.8000   61.1360   33.3430 C   0  0  0  0  0  0  0  0  0  0  0  0
   26.4410   60.3930   34.4420 N   0  0  0  0  0  0  0  0  0  0  0  0
   26.8630   59.4980   34.6860 H   0  0  0  0  0  0  0  0  0  0  0  0
   25.4340   61.0160   35.1180 C   0  0  0  0  0  0  0  0  0  0  0  0
   22.5690   62.9480   32.7410 C   0  0  0  0  0  0  0  0  0  0  0  0
   21.3430   63.6700   32.5270 O   0  0  0  0  0  0  0  0  0  0  0  0
   21.5270   65.0120   32.2970 C   0  0  0  0  0  0  0  0  0  0  0  0
   20.5030   65.9550   32.2470 C   0  0  0  0  0  0  0  0  0  0  0  0
   20.7610   67.2880   31.9670 C   0  0  0  0  0  0  0  0  0  0  0  0
   22.1170   67.6250   31.7420 C   0  0  0  0  0  0  0  0  0  0  0  0
   23.1440   66.7570   31.7900 N   0  0  0  0  0  0  0  0  0  0  0  0
   22.8170   65.4730   32.0730 C   0  0  0  0  0  0  0  0  0  0  0  0
   19.7130   68.2930   31.8910 C   0  0  0  0  0  0  0  0  0  0  0  0
   19.6190   69.3970   32.7000 C   0  0  0  0  0  0  0  0  0  0  0  0
   18.5600   70.3880   32.6030 C   0  0  0  0  0  0  0  0  0  0  0  0
   18.8670   71.7190   32.9720 C   0  0  0  0  0  0  0  0  0  0  0  0
   17.8660   72.6630   32.8800 C   0  0  0  0  0  0  0  0  0  0  0  0
   16.6100   72.4160   32.4660 N   0  0  0  0  0  0  0  0  0  0  0  0
   16.3450   71.1270   32.1180 C   0  0  0  0  0  0  0  0  0  0  0  0
   17.2700   70.1040   32.1700 C   0  0  0  0  0  0  0  0  0  0  0  0
  1 17  1  6  0  0  0
  1  2  1  0  0  0  0
  1  6  1  0  0  0  0
  2  3  1  0  0  0  0
  4  2  1  0  0  0  0
  5  2  1  0  0  0  0
  7  6  1  0  0  0  0
  7 16  2  0  0  0  0
  8 13  1  0  0  0  0
  8  7  1  0  0  0  0
  9  8  2  0  0  0  0
 10 11  2  0  0  0  0
 10  9  1  0  0  0  0
 11 12  1  0  0  0  0
 12 13  2  0  0  0  0
 13 14  1  0  0  0  0
 14 15  1  0  0  0  0
 14 16  1  0  0  0  0
 18 17  1  0  0  0  0
 19 18  1  0  0  0  0
 20 19  1  0  0  0  0
 21 20  2  0  0  0  0
 22 23  2  0  0  0  0
 22 21  1  0  0  0  0
 23 24  1  0  0  0  0
 24 19  2  0  0  0  0
 25 21  1  0  0  0  0
 25 26  2  0  0  0  0
 27 26  1  0  0  0  0
 27 28  2  0  0  0  0
 29 28  1  0  0  0  0
 30 29  2  0  0  0  0
 31 32  2  0  0  0  0
 31 30  1  0  0  0  0
 32 27  1  0  0  0  0
M  END
>  <minimizedAffinity>
-7.77667379

$$$$

 OpenBabel12271915233D

 32 35  0  0  1  0  0  0  0  0999 V2000
   17.7260   67.5180   31.0040 C   0  0  1  0  0  0  0  0  0  0  0  0
   17.1100   68.8410   30.6320 N   0  0  0  0  0  0  0  0  0  0  0  0
   16.0940   68.7610   30.4980 H   0  0  0  0  0  0  0  0  0  0  0  0
   17.5210   69.1880   29.7510 H   0  0  0  0  0  0  0  0  0  0  0  0
   17.2650   69.5730   31.3460 H   0  0  0  0  0  0  0  0  0  0  0  0
   17.1100   66.3740   30.1720 C   0  0  0  0  0  0  0  0  0  0  0  0
   16.6910   65.2260   31.0020 C   0  0  0  0  0  0  0  0  0  0  0  0
   17.5410   64.1810   31.4820 C   0  0  0  0  0  0  0  0  0  0  0  0
   18.9290   63.9130   31.3650 C   0  0  0  0  0  0  0  0  0  0  0  0
   19.4410   62.7720   31.9570 C   0  0  0  0  0  0  0  0  0  0  0  0
   18.6120   61.8900   32.6440 C   0  0  0  0  0  0  0  0  0  0  0  0
   17.2470   62.1230   32.7640 C   0  0  0  0  0  0  0  0  0  0  0  0
   16.7280   63.2910   32.1730 C   0  0  0  0  0  0  0  0  0  0  0  0
   15.4380   63.7630   32.1140 N   0  0  0  0  0  0  0  0  0  0  0  0
   14.6370   63.2750   32.5100 H   0  0  0  0  0  0  0  0  0  0  0  0
   15.4040   64.9410   31.4290 C   0  0  0  0  0  0  0  0  0  0  0  0
   19.2180   67.5940   30.7230 C   0  0  0  0  0  0  0  0  0  0  0  0
   19.8750   67.5010   31.9990 O   0  0  0  0  0  0  0  0  0  0  0  0
   21.2370   67.3470   31.9070 C   0  0  0  0  0  0  0  0  0  0  0  0
   21.9010   66.1220   31.9530 C   0  0  0  0  0  0  0  0  0  0  0  0
   23.2840   66.0480   31.8970 C   0  0  0  0  0  0  0  0  0  0  0  0
   23.9700   67.2810   31.7860 C   0  0  0  0  0  0  0  0  0  0  0  0
   23.3780   68.4880   31.7260 N   0  0  0  0  0  0  0  0  0  0  0  0
   22.0250   68.4830   31.7830 C   0  0  0  0  0  0  0  0  0  0  0  0
   24.0060   64.7880   31.9590 C   0  0  0  0  0  0  0  0  0  0  0  0
   25.2590   64.6220   32.4920 C   0  0  0  0  0  0  0  0  0  0  0  0
   25.9590   63.3490   32.5430 C   0  0  0  0  0  0  0  0  0  0  0  0
   25.6700   62.4790   33.6210 C   0  0  0  0  0  0  0  0  0  0  0  0
   26.3320   61.2700   33.6720 C   0  0  0  0  0  0  0  0  0  0  0  0
   27.2380   60.8500   32.7720 N   0  0  0  0  0  0  0  0  0  0  0  0
   27.4950   61.7070   31.7470 C   0  0  0  0  0  0  0  0  0  0  0  0
   26.8920   62.9390   31.5970 C   0  0  0  0  0  0  0  0  0  0  0  0
  1  6  1  6  0  0  0
  2  1  1  0  0  0  0
  2  5  1  0  0  0  0
  3  2  1  0  0  0  0
  4  2  1  0  0  0  0
  6  7  1  0  0  0  0
  7 16  2  0  0  0  0
  7  8  1  0  0  0  0
  8 13  1  0  0  0  0
  9  8  2  0  0  0  0
  9 10  1  0  0  0  0
 10 11  2  0  0  0  0
 11 12  1  0  0  0  0
 13 12  2  0  0  0  0
 14 13  1  0  0  0  0
 14 15  1  0  0  0  0
 16 14  1  0  0  0  0
 17  1  1  0  0  0  0
 17 18  1  0  0  0  0
 19 20  2  0  0  0  0
 19 18  1  0  0  0  0
 21 20  1  0  0  0  0
 21 25  1  0  0  0  0
 22 21  2  0  0  0  0
 23 24  2  0  0  0  0
 23 22  1  0  0  0  0
 24 19  1  0  0  0  0
 25 26  2  0  0  0  0
 26 27  1  0  0  0  0
 27 28  2  0  0  0  0
 28 29  1  0  0  0  0
 30 29  2  0  0  0  0
 31 30  1  0  0  0  0
 32 31  2  0  0  0  0
 32 27  1  0  0  0  0
M  END
>  <minimizedAffinity>
-7.77206612

$$$$
