
 OpenBabel12271915163D

 30 33  0  0  1  0  0  0  0  0999 V2000
   19.4080   61.8410   32.1600 C   0  0  1  0  0  0  0  0  0  0  0  0
   19.6240   60.6660   31.4030 N   0  0  0  0  0  0  0  0  0  0  0  0
   20.1180   59.9510   31.9720 H   0  0  0  0  0  0  0  0  0  0  0  0
   18.2850   60.0950   31.3170 O   0  0  0  0  0  0  0  0  0  0  0  0
   17.6460   60.3370   32.5620 C   0  0  2  0  0  0  0  0  0  0  0  0
   17.6140   58.9650   33.2580 C   0  0  1  0  0  0  0  0  0  0  0  0
   16.5010   58.1500   32.6650 C   0  0  2  0  0  0  0  0  0  0  0  0
   15.1790   58.8280   33.0620 C   0  0  1  0  0  0  0  0  0  0  0  0
   15.1760   60.3700   32.8130 C   0  0  2  0  0  0  0  0  0  0  0  0
   16.3750   60.9100   32.2820 O   0  0  0  0  0  0  0  0  0  0  0  0
   18.4820   61.3590   33.2570 C   0  0  0  0  0  0  0  0  0  0  0  0
   20.6750   62.5040   32.6440 C   0  0  0  0  0  0  0  0  0  0  0  0
   21.0570   63.7960   32.3350 C   0  0  0  0  0  0  0  0  0  0  0  0
   22.2300   64.3440   32.8560 C   0  0  0  0  0  0  0  0  0  0  0  0
   23.0490   63.5430   33.6940 C   0  0  0  0  0  0  0  0  0  0  0  0
   24.2340   64.0590   34.2430 C   0  0  0  0  0  0  0  0  0  0  0  0
   25.0210   63.2430   35.0620 C   0  0  0  0  0  0  0  0  0  0  0  0
   24.6460   61.9390   35.3540 C   0  0  0  0  0  0  0  0  0  0  0  0
   23.4670   61.4210   34.8160 C   0  0  0  0  0  0  0  0  0  0  0  0
   22.6810   62.2380   33.9790 C   0  0  0  0  0  0  0  0  0  0  0  0
   21.5150   61.7060   33.4500 C   0  0  0  0  0  0  0  0  0  0  0  0
   16.5310   56.8070   33.1400 O   0  0  0  0  0  0  0  0  0  0  0  0
   17.2420   56.7360   33.8300 H   0  0  0  0  0  0  0  0  0  0  0  0
   18.8680   58.2170   33.1720 O   0  0  0  0  0  0  0  0  0  0  0  0
   18.8610   57.7710   32.3010 H   0  0  0  0  0  0  0  0  0  0  0  0
   14.1130   58.1760   32.3490 O   0  0  0  0  0  0  0  0  0  0  0  0
   13.3740   58.8390   32.1880 H   0  0  0  0  0  0  0  0  0  0  0  0
   14.7560   61.1390   34.0700 C   0  0  0  0  0  0  0  0  0  0  0  0
   14.8180   60.3300   35.2320 O   0  0  0  0  0  0  0  0  0  0  0  0
   13.9970   59.8040   35.2790 H   0  0  0  0  0  0  0  0  0  0  0  0
  1 12  1  1  0  0  0
  1 11  1  0  0  0  0
  2  3  1  0  0  0  0
  2  1  1  0  0  0  0
  4  2  1  0  0  0  0
  4  5  1  0  0  0  0
  5 11  1  1  0  0  0
  6  5  1  6  0  0  0
  7  8  1  0  0  0  0
  7 22  1  1  0  0  0
  7  6  1  0  0  0  0
  8 26  1  6  0  0  0
  9  8  1  0  0  0  0
  9 28  1  1  0  0  0
 10  5  1  0  0  0  0
 10  9  1  0  0  0  0
 12 21  1  0  0  0  0
 13 12  2  0  0  0  0
 13 14  1  0  0  0  0
 14 15  2  0  0  0  0
 15 20  1  0  0  0  0
 15 16  1  0  0  0  0
 16 17  2  0  0  0  0
 17 18  1  0  0  0  0
 19 18  2  0  0  0  0
 20 19  1  0  0  0  0
 21 20  2  0  0  0  0
 22 23  1  0  0  0  0
 24  6  1  0  0  0  0
 25 24  1  0  0  0  0
 27 26  1  0  0  0  0
 28 29  1  0  0  0  0
 29 30  1  0  0  0  0
M  END
>  <minimizedAffinity>
-9.15446377

$$$$

 OpenBabel12271915163D

 30 33  0  0  1  0  0  0  0  0999 V2000
   20.3090   64.3740   31.6100 C   0  0  1  0  0  0  0  0  0  0  0  0
   19.6410   63.1690   31.2910 N   0  0  0  0  0  0  0  0  0  0  0  0
   19.3400   62.6780   32.1560 H   0  0  0  0  0  0  0  0  0  0  0  0
   18.3640   63.6440   30.7710 O   0  0  0  0  0  0  0  0  0  0  0  0
   17.9940   64.7790   31.5410 C   0  0  2  0  0  0  0  0  0  0  0  0
   16.8440   64.2850   32.4360 C   0  0  1  0  0  0  0  0  0  0  0  0
   15.5860   64.2320   31.6190 C   0  0  2  0  0  0  0  0  0  0  0  0
   15.2160   65.6810   31.2590 C   0  0  1  0  0  0  0  0  0  0  0  0
   16.4190   66.5070   30.7050 C   0  0  2  0  0  0  0  0  0  0  0  0
   17.6560   65.8180   30.6310 O   0  0  0  0  0  0  0  0  0  0  0  0
   19.2220   65.1840   32.2850 C   0  0  0  0  0  0  0  0  0  0  0  0
   21.5620   64.1850   32.4300 C   0  0  0  0  0  0  0  0  0  0  0  0
   22.5540   65.1350   32.5860 C   0  0  0  0  0  0  0  0  0  0  0  0
   23.6660   64.8890   33.3930 C   0  0  0  0  0  0  0  0  0  0  0  0
   23.7810   63.6310   34.0390 C   0  0  0  0  0  0  0  0  0  0  0  0
   24.8810   63.3460   34.8650 C   0  0  0  0  0  0  0  0  0  0  0  0
   24.9660   62.0960   35.4850 C   0  0  0  0  0  0  0  0  0  0  0  0
   23.9800   61.1360   35.3100 C   0  0  0  0  0  0  0  0  0  0  0  0
   22.8820   61.4130   34.4960 C   0  0  0  0  0  0  0  0  0  0  0  0
   22.8010   62.6670   33.8600 C   0  0  0  0  0  0  0  0  0  0  0  0
   21.7050   62.9250   33.0500 C   0  0  0  0  0  0  0  0  0  0  0  0
   14.5240   63.6140   32.3400 O   0  0  0  0  0  0  0  0  0  0  0  0
   14.8390   63.4310   33.2640 H   0  0  0  0  0  0  0  0  0  0  0  0
   17.0800   62.9810   33.0560 O   0  0  0  0  0  0  0  0  0  0  0  0
   16.8400   62.3110   32.3840 H   0  0  0  0  0  0  0  0  0  0  0  0
   14.1260   65.6410   30.3210 O   0  0  0  0  0  0  0  0  0  0  0  0
   14.1810   66.4470   29.7220 H   0  0  0  0  0  0  0  0  0  0  0  0
   16.5890   67.8270   31.4640 C   0  0  0  0  0  0  0  0  0  0  0  0
   16.3590   67.6720   32.8540 O   0  0  0  0  0  0  0  0  0  0  0  0
   15.3960   67.7070   33.0080 H   0  0  0  0  0  0  0  0  0  0  0  0
  1 11  1  0  0  0  0
  1 12  1  1  0  0  0
  2  1  1  0  0  0  0
  2  3  1  0  0  0  0
  4  2  1  0  0  0  0
  4  5  1  0  0  0  0
  5 11  1  1  0  0  0
  6  5  1  6  0  0  0
  6 24  1  0  0  0  0
  7 22  1  1  0  0  0
  7  6  1  0  0  0  0
  8 26  1  6  0  0  0
  8  7  1  0  0  0  0
  9  8  1  0  0  0  0
  9 28  1  1  0  0  0
 10  9  1  0  0  0  0
 10  5  1  0  0  0  0
 12 13  2  0  0  0  0
 12 21  1  0  0  0  0
 13 14  1  0  0  0  0
 14 15  2  0  0  0  0
 15 16  1  0  0  0  0
 16 17  2  0  0  0  0
 18 17  1  0  0  0  0
 19 18  2  0  0  0  0
 20 15  1  0  0  0  0
 20 19  1  0  0  0  0
 21 20  2  0  0  0  0
 22 23  1  0  0  0  0
 25 24  1  0  0  0  0
 27 26  1  0  0  0  0
 28 29  1  0  0  0  0
 29 30  1  0  0  0  0
M  END
>  <minimizedAffinity>
-9.00337982

$$$$

 OpenBabel12271915163D

 30 33  0  0  1  0  0  0  0  0999 V2000
   19.7720   61.9020   32.3030 C   0  0  1  0  0  0  0  0  0  0  0  0
   19.9350   60.7560   31.4900 N   0  0  0  0  0  0  0  0  0  0  0  0
   20.3810   59.9870   32.0280 H   0  0  0  0  0  0  0  0  0  0  0  0
   18.5690   60.2640   31.3610 O   0  0  0  0  0  0  0  0  0  0  0  0
   17.9260   60.4790   32.6100 C   0  0  2  0  0  0  0  0  0  0  0  0
   17.8100   59.0770   33.2340 C   0  0  1  0  0  0  0  0  0  0  0  0
   16.6630   58.3550   32.5890 C   0  0  2  0  0  0  0  0  0  0  0  0
   15.3740   59.0840   33.0050 C   0  0  1  0  0  0  0  0  0  0  0  0
   15.4580   60.6330   32.8350 C   0  0  2  0  0  0  0  0  0  0  0  0
   16.6910   61.1330   32.3450 O   0  0  0  0  0  0  0  0  0  0  0  0
   18.8060   61.4170   33.3640 C   0  0  0  0  0  0  0  0  0  0  0  0
   21.0660   62.4690   32.8340 C   0  0  0  0  0  0  0  0  0  0  0  0
   21.7780   61.9490   33.8990 C   0  0  0  0  0  0  0  0  0  0  0  0
   22.9880   62.5180   34.3020 C   0  0  0  0  0  0  0  0  0  0  0  0
   23.4710   63.6620   33.6170 C   0  0  0  0  0  0  0  0  0  0  0  0
   24.6860   64.2600   33.9880 C   0  0  0  0  0  0  0  0  0  0  0  0
   25.1340   65.3890   33.2950 C   0  0  0  0  0  0  0  0  0  0  0  0
   24.4070   65.9220   32.2400 C   0  0  0  0  0  0  0  0  0  0  0  0
   23.2010   65.3310   31.8630 C   0  0  0  0  0  0  0  0  0  0  0  0
   22.7420   64.2020   32.5690 C   0  0  0  0  0  0  0  0  0  0  0  0
   21.5390   63.6280   32.1830 C   0  0  0  0  0  0  0  0  0  0  0  0
   16.6140   56.9900   32.9960 O   0  0  0  0  0  0  0  0  0  0  0  0
   17.3100   56.8460   33.6890 H   0  0  0  0  0  0  0  0  0  0  0  0
   19.0220   58.2660   33.1250 O   0  0  0  0  0  0  0  0  0  0  0  0
   19.0040   57.8650   32.2320 H   0  0  0  0  0  0  0  0  0  0  0  0
   14.2850   58.5270   32.2480 O   0  0  0  0  0  0  0  0  0  0  0  0
   13.5850   59.2370   32.1130 H   0  0  0  0  0  0  0  0  0  0  0  0
   15.0630   61.3610   34.1230 C   0  0  0  0  0  0  0  0  0  0  0  0
   14.7570   60.4560   35.1710 O   0  0  0  0  0  0  0  0  0  0  0  0
   13.8350   60.1580   35.0550 H   0  0  0  0  0  0  0  0  0  0  0  0
  1 12  1  1  0  0  0
  1 11  1  0  0  0  0
  2  3  1  0  0  0  0
  2  1  1  0  0  0  0
  4  2  1  0  0  0  0
  4  5  1  0  0  0  0
  5 11  1  1  0  0  0
  6  5  1  6  0  0  0
  7 22  1  1  0  0  0
  7  8  1  0  0  0  0
  7  6  1  0  0  0  0
  8 26  1  6  0  0  0
  9  8  1  0  0  0  0
  9 28  1  1  0  0  0
 10  5  1  0  0  0  0
 10  9  1  0  0  0  0
 12 13  2  0  0  0  0
 13 14  1  0  0  0  0
 15 16  1  0  0  0  0
 15 14  2  0  0  0  0
 17 16  2  0  0  0  0
 18 17  1  0  0  0  0
 19 18  2  0  0  0  0
 19 20  1  0  0  0  0
 20 15  1  0  0  0  0
 21 20  2  0  0  0  0
 21 12  1  0  0  0  0
 22 23  1  0  0  0  0
 24  6  1  0  0  0  0
 25 24  1  0  0  0  0
 27 26  1  0  0  0  0
 28 29  1  0  0  0  0
 30 29  1  0  0  0  0
M  END
>  <minimizedAffinity>
-8.96656322

$$$$

 OpenBabel12271915163D

 30 33  0  0  1  0  0  0  0  0999 V2000
   20.3890   63.7690   31.8350 C   0  0  1  0  0  0  0  0  0  0  0  0
   19.5170   62.9100   31.1270 N   0  0  0  0  0  0  0  0  0  0  0  0
   18.9190   62.3730   31.7840 H   0  0  0  0  0  0  0  0  0  0  0  0
   18.5520   63.8420   30.5550 O   0  0  0  0  0  0  0  0  0  0  0  0
   18.3310   64.8610   31.5190 C   0  0  2  0  0  0  0  0  0  0  0  0
   16.9250   64.5710   32.0760 C   0  0  1  0  0  0  0  0  0  0  0  0
   15.9060   65.0630   31.0900 C   0  0  2  0  0  0  0  0  0  0  0  0
   16.0110   66.5980   31.0540 C   0  0  1  0  0  0  0  0  0  0  0  0
   17.4780   67.1130   30.9140 C   0  0  2  0  0  0  0  0  0  0  0  0
   18.4800   66.1110   30.8580 O   0  0  0  0  0  0  0  0  0  0  0  0
   19.4290   64.7210   32.5180 C   0  0  0  0  0  0  0  0  0  0  0  0
   21.3410   63.0530   32.7620 C   0  0  0  0  0  0  0  0  0  0  0  0
   20.9590   62.2970   33.8550 C   0  0  0  0  0  0  0  0  0  0  0  0
   21.9060   61.6370   34.6390 C   0  0  0  0  0  0  0  0  0  0  0  0
   23.2800   61.7720   34.3160 C   0  0  0  0  0  0  0  0  0  0  0  0
   24.2640   61.1190   35.0770 C   0  0  0  0  0  0  0  0  0  0  0  0
   25.6110   61.2750   34.7340 C   0  0  0  0  0  0  0  0  0  0  0  0
   25.9930   62.0520   33.6490 C   0  0  0  0  0  0  0  0  0  0  0  0
   25.0220   62.6990   32.8850 C   0  0  0  0  0  0  0  0  0  0  0  0
   23.6660   62.5540   33.2380 C   0  0  0  0  0  0  0  0  0  0  0  0
   22.7130   63.2080   32.4710 C   0  0  0  0  0  0  0  0  0  0  0  0
   14.5900   64.6660   31.4630 O   0  0  0  0  0  0  0  0  0  0  0  0
   14.6370   64.2180   32.3490 H   0  0  0  0  0  0  0  0  0  0  0  0
   16.6750   63.1620   32.3770 O   0  0  0  0  0  0  0  0  0  0  0  0
   16.4220   62.7420   31.5300 H   0  0  0  0  0  0  0  0  0  0  0  0
   15.1790   67.0740   29.9810 O   0  0  0  0  0  0  0  0  0  0  0  0
   15.5710   67.9270   29.6190 H   0  0  0  0  0  0  0  0  0  0  0  0
   17.8150   68.1440   31.9970 C   0  0  0  0  0  0  0  0  0  0  0  0
   16.9340   68.0570   33.1040 O   0  0  0  0  0  0  0  0  0  0  0  0
   16.1220   68.5520   32.8840 H   0  0  0  0  0  0  0  0  0  0  0  0
  1 11  1  0  0  0  0
  1 12  1  1  0  0  0
  2  3  1  0  0  0  0
  2  1  1  0  0  0  0
  4  2  1  0  0  0  0
  4  5  1  0  0  0  0
  5 11  1  1  0  0  0
  6  5  1  6  0  0  0
  6 24  1  0  0  0  0
  7 22  1  1  0  0  0
  7  6  1  0  0  0  0
  8 26  1  6  0  0  0
  8  7  1  0  0  0  0
  9  8  1  0  0  0  0
  9 28  1  1  0  0  0
 10  9  1  0  0  0  0
 10  5  1  0  0  0  0
 12 13  1  0  0  0  0
 13 14  2  0  0  0  0
 15 14  1  0  0  0  0
 15 16  2  0  0  0  0
 17 16  1  0  0  0  0
 18 17  2  0  0  0  0
 19 20  2  0  0  0  0
 19 18  1  0  0  0  0
 20 15  1  0  0  0  0
 21 12  2  0  0  0  0
 21 20  1  0  0  0  0
 22 23  1  0  0  0  0
 25 24  1  0  0  0  0
 27 26  1  0  0  0  0
 28 29  1  0  0  0  0
 30 29  1  0  0  0  0
M  END
>  <minimizedAffinity>
-8.86354637

$$$$

 OpenBabel12271915163D

 30 33  0  0  1  0  0  0  0  0999 V2000
   20.9730   68.4770   31.4360 C   0  0  1  0  0  0  0  0  0  0  0  0
   20.0400   67.8920   30.5480 N   0  0  0  0  0  0  0  0  0  0  0  0
   19.6520   67.0170   30.9500 H   0  0  0  0  0  0  0  0  0  0  0  0
   18.8970   68.7910   30.6540 O   0  0  0  0  0  0  0  0  0  0  0  0
   18.8110   69.2010   32.0110 C   0  0  2  0  0  0  0  0  0  0  0  0
   17.5950   68.4420   32.5720 C   0  0  1  0  0  0  0  0  0  0  0  0
   16.3440   69.1340   32.1190 C   0  0  2  0  0  0  0  0  0  0  0  0
   16.3080   70.5090   32.8090 C   0  0  1  0  0  0  0  0  0  0  0  0
   17.6570   71.2870   32.7080 C   0  0  2  0  0  0  0  0  0  0  0  0
   18.7020   70.6190   32.0200 O   0  0  0  0  0  0  0  0  0  0  0  0
   20.1130   68.8240   32.6330 C   0  0  0  0  0  0  0  0  0  0  0  0
   22.1650   67.6030   31.7410 C   0  0  0  0  0  0  0  0  0  0  0  0
   23.4820   68.0180   31.6850 C   0  0  0  0  0  0  0  0  0  0  0  0
   24.5240   67.1510   32.0190 C   0  0  0  0  0  0  0  0  0  0  0  0
   24.2160   65.8190   32.3950 C   0  0  0  0  0  0  0  0  0  0  0  0
   25.2350   64.9170   32.7440 C   0  0  0  0  0  0  0  0  0  0  0  0
   24.8970   63.6100   33.1070 C   0  0  0  0  0  0  0  0  0  0  0  0
   23.5750   63.1890   33.1420 C   0  0  0  0  0  0  0  0  0  0  0  0
   22.5570   64.0800   32.8020 C   0  0  0  0  0  0  0  0  0  0  0  0
   22.8960   65.3940   32.4220 C   0  0  0  0  0  0  0  0  0  0  0  0
   21.8720   66.2660   32.0830 C   0  0  0  0  0  0  0  0  0  0  0  0
   15.1820   68.3810   32.4550 O   0  0  0  0  0  0  0  0  0  0  0  0
   15.4650   67.5960   32.9960 H   0  0  0  0  0  0  0  0  0  0  0  0
   17.5390   67.0310   32.1930 O   0  0  0  0  0  0  0  0  0  0  0  0
   17.1390   67.0030   31.3000 H   0  0  0  0  0  0  0  0  0  0  0  0
   15.2200   71.2610   32.2440 O   0  0  0  0  0  0  0  0  0  0  0  0
   15.4460   72.2410   32.2810 H   0  0  0  0  0  0  0  0  0  0  0  0
   18.1390   71.7550   34.0840 C   0  0  0  0  0  0  0  0  0  0  0  0
   17.0590   72.0940   34.9370 O   0  0  0  0  0  0  0  0  0  0  0  0
   16.7790   73.0050   34.7250 H   0  0  0  0  0  0  0  0  0  0  0  0
  1 12  1  1  0  0  0
  1 11  1  0  0  0  0
  2  4  1  0  0  0  0
  2  3  1  0  0  0  0
  2  1  1  0  0  0  0
  4  5  1  0  0  0  0
  5 10  1  0  0  0  0
  5 11  1  1  0  0  0
  6  5  1  6  0  0  0
  7 22  1  1  0  0  0
  7  6  1  0  0  0  0
  7  8  1  0  0  0  0
  8 26  1  6  0  0  0
  9  8  1  0  0  0  0
  9 28  1  1  0  0  0
 10  9  1  0  0  0  0
 12 21  1  0  0  0  0
 13 12  2  0  0  0  0
 13 14  1  0  0  0  0
 14 15  2  0  0  0  0
 15 20  1  0  0  0  0
 15 16  1  0  0  0  0
 16 17  2  0  0  0  0
 17 18  1  0  0  0  0
 19 18  2  0  0  0  0
 20 19  1  0  0  0  0
 21 20  2  0  0  0  0
 22 23  1  0  0  0  0
 24  6  1  0  0  0  0
 25 24  1  0  0  0  0
 26 27  1  0  0  0  0
 28 29  1  0  0  0  0
 30 29  1  0  0  0  0
M  END
>  <minimizedAffinity>
-8.86276627

$$$$

 OpenBabel12271915163D

 30 33  0  0  1  0  0  0  0  0999 V2000
   19.4000   63.0010   31.5680 C   0  0  1  0  0  0  0  0  0  0  0  0
   18.6340   61.8140   31.5190 N   0  0  0  0  0  0  0  0  0  0  0  0
   18.5200   61.4130   32.4710 H   0  0  0  0  0  0  0  0  0  0  0  0
   17.2910   62.3150   31.2540 O   0  0  0  0  0  0  0  0  0  0  0  0
   17.1460   63.5280   31.9780 C   0  0  2  0  0  0  0  0  0  0  0  0
   16.2110   63.1740   33.1480 C   0  0  1  0  0  0  0  0  0  0  0  0
   14.8000   63.1240   32.6400 C   0  0  2  0  0  0  0  0  0  0  0  0
   14.4100   64.5570   32.2380 C   0  0  1  0  0  0  0  0  0  0  0  0
   15.4850   65.2660   31.3560 C   0  0  2  0  0  0  0  0  0  0  0  0
   16.6480   64.5060   31.0730 O   0  0  0  0  0  0  0  0  0  0  0  0
   18.5240   63.9240   32.3890 C   0  0  0  0  0  0  0  0  0  0  0  0
   20.7990   62.8110   32.1020 C   0  0  0  0  0  0  0  0  0  0  0  0
   21.2390   61.6890   32.7790 C   0  0  0  0  0  0  0  0  0  0  0  0
   22.5630   61.5810   33.2080 C   0  0  0  0  0  0  0  0  0  0  0  0
   23.4540   62.6560   32.9630 C   0  0  0  0  0  0  0  0  0  0  0  0
   24.7960   62.5840   33.3740 C   0  0  0  0  0  0  0  0  0  0  0  0
   25.6480   63.6630   33.1200 C   0  0  0  0  0  0  0  0  0  0  0  0
   25.1990   64.7980   32.4600 C   0  0  0  0  0  0  0  0  0  0  0  0
   23.8690   64.8750   32.0450 C   0  0  0  0  0  0  0  0  0  0  0  0
   23.0060   63.7940   32.3110 C   0  0  0  0  0  0  0  0  0  0  0  0
   21.6860   63.8890   31.8960 C   0  0  0  0  0  0  0  0  0  0  0  0
   13.9080   62.6280   33.6340 O   0  0  0  0  0  0  0  0  0  0  0  0
   14.4170   62.5040   34.4770 H   0  0  0  0  0  0  0  0  0  0  0  0
   16.5350   61.9150   33.8180 O   0  0  0  0  0  0  0  0  0  0  0  0
   16.1250   61.2060   33.2820 H   0  0  0  0  0  0  0  0  0  0  0  0
   13.1350   64.5000   31.5740 O   0  0  0  0  0  0  0  0  0  0  0  0
   13.0820   65.2500   30.9050 H   0  0  0  0  0  0  0  0  0  0  0  0
   15.8700   66.6330   31.9320 C   0  0  0  0  0  0  0  0  0  0  0  0
   15.2200   66.8890   33.1660 O   0  0  0  0  0  0  0  0  0  0  0  0
   14.3230   67.2230   32.9730 H   0  0  0  0  0  0  0  0  0  0  0  0
  1 12  1  1  0  0  0
  1 11  1  0  0  0  0
  2  1  1  0  0  0  0
  2  3  1  0  0  0  0
  4  2  1  0  0  0  0
  4  5  1  0  0  0  0
  5 11  1  1  0  0  0
  6  5  1  6  0  0  0
  6 24  1  0  0  0  0
  7  6  1  0  0  0  0
  7 22  1  1  0  0  0
  8 26  1  6  0  0  0
  8  7  1  0  0  0  0
  9 28  1  1  0  0  0
  9  8  1  0  0  0  0
 10  9  1  0  0  0  0
 10  5  1  0  0  0  0
 12 13  1  0  0  0  0
 13 14  2  0  0  0  0
 15 14  1  0  0  0  0
 15 16  2  0  0  0  0
 17 16  1  0  0  0  0
 18 17  2  0  0  0  0
 19 20  2  0  0  0  0
 19 18  1  0  0  0  0
 20 15  1  0  0  0  0
 21 12  2  0  0  0  0
 21 20  1  0  0  0  0
 22 23  1  0  0  0  0
 25 24  1  0  0  0  0
 27 26  1  0  0  0  0
 28 29  1  0  0  0  0
 30 29  1  0  0  0  0
M  END
>  <minimizedAffinity>
-8.80238342

$$$$

 OpenBabel12271915163D

 30 33  0  0  1  0  0  0  0  0999 V2000
   19.6720   67.4270   31.3400 C   0  0  1  0  0  0  0  0  0  0  0  0
   18.3460   66.9650   31.1700 N   0  0  0  0  0  0  0  0  0  0  0  0
   17.9340   66.6930   32.0840 H   0  0  0  0  0  0  0  0  0  0  0  0
   17.6180   68.1950   30.8810 O   0  0  0  0  0  0  0  0  0  0  0  0
   18.1890   69.2190   31.6830 C   0  0  2  0  0  0  0  0  0  0  0  0
   17.1420   69.4820   32.7800 C   0  0  1  0  0  0  0  0  0  0  0  0
   16.0430   70.3270   32.2050 C   0  0  2  0  0  0  0  0  0  0  0  0
   16.6460   71.7070   31.8910 C   0  0  1  0  0  0  0  0  0  0  0  0
   17.9970   71.6280   31.1130 C   0  0  2  0  0  0  0  0  0  0  0  0
   18.4690   70.3210   30.8290 O   0  0  0  0  0  0  0  0  0  0  0  0
   19.4810   68.6690   32.1840 C   0  0  0  0  0  0  0  0  0  0  0  0
   20.6120   66.4000   31.9230 C   0  0  0  0  0  0  0  0  0  0  0  0
   20.2190   65.2000   32.4850 C   0  0  0  0  0  0  0  0  0  0  0  0
   21.1600   64.2900   32.9700 C   0  0  0  0  0  0  0  0  0  0  0  0
   22.5370   64.6240   32.9010 C   0  0  0  0  0  0  0  0  0  0  0  0
   23.5160   63.7340   33.3730 C   0  0  0  0  0  0  0  0  0  0  0  0
   24.8650   64.0950   33.2940 C   0  0  0  0  0  0  0  0  0  0  0  0
   25.2550   65.3090   32.7480 C   0  0  0  0  0  0  0  0  0  0  0  0
   24.2890   66.1970   32.2740 C   0  0  0  0  0  0  0  0  0  0  0  0
   22.9300   65.8410   32.3650 C   0  0  0  0  0  0  0  0  0  0  0  0
   21.9820   66.7360   31.8920 C   0  0  0  0  0  0  0  0  0  0  0  0
   14.9570   70.4580   33.1190 O   0  0  0  0  0  0  0  0  0  0  0  0
   15.2140   70.0220   33.9740 H   0  0  0  0  0  0  0  0  0  0  0  0
   16.5720   68.2730   33.3720 O   0  0  0  0  0  0  0  0  0  0  0  0
   15.8590   67.9830   32.7680 H   0  0  0  0  0  0  0  0  0  0  0  0
   15.6620   72.4670   31.1660 O   0  0  0  0  0  0  0  0  0  0  0  0
   16.1340   73.1080   30.5520 H   0  0  0  0  0  0  0  0  0  0  0  0
   19.0900   72.4500   31.8020 C   0  0  0  0  0  0  0  0  0  0  0  0
   18.9320   72.4650   33.2110 O   0  0  0  0  0  0  0  0  0  0  0  0
   18.2740   73.1510   33.4350 H   0  0  0  0  0  0  0  0  0  0  0  0
  1 12  1  1  0  0  0
  1 11  1  0  0  0  0
  2  1  1  0  0  0  0
  2  3  1  0  0  0  0
  4  2  1  0  0  0  0
  4  5  1  0  0  0  0
  5 11  1  1  0  0  0
  6  5  1  6  0  0  0
  6 24  1  0  0  0  0
  7  6  1  0  0  0  0
  7 22  1  1  0  0  0
  8 26  1  6  0  0  0
  8  7  1  0  0  0  0
  9 28  1  1  0  0  0
  9  8  1  0  0  0  0
 10  9  1  0  0  0  0
 10  5  1  0  0  0  0
 12 13  1  0  0  0  0
 13 14  2  0  0  0  0
 15 14  1  0  0  0  0
 15 16  2  0  0  0  0
 17 16  1  0  0  0  0
 18 17  2  0  0  0  0
 19 20  2  0  0  0  0
 19 18  1  0  0  0  0
 20 15  1  0  0  0  0
 21 12  2  0  0  0  0
 21 20  1  0  0  0  0
 22 23  1  0  0  0  0
 25 24  1  0  0  0  0
 27 26  1  0  0  0  0
 28 29  1  0  0  0  0
 29 30  1  0  0  0  0
M  END
>  <minimizedAffinity>
-8.70308018

$$$$

 OpenBabel12271915163D

 30 33  0  0  1  0  0  0  0  0999 V2000
   19.9570   68.2680   31.4500 C   0  0  1  0  0  0  0  0  0  0  0  0
   19.6290   68.3590   30.0780 N   0  0  0  0  0  0  0  0  0  0  0  0
   19.5360   67.4120   29.6610 H   0  0  0  0  0  0  0  0  0  0  0  0
   18.2400   68.7980   30.1130 O   0  0  0  0  0  0  0  0  0  0  0  0
   17.6210   68.1450   31.2120 C   0  0  2  0  0  0  0  0  0  0  0  0
   16.7150   67.0780   30.5710 C   0  0  1  0  0  0  0  0  0  0  0  0
   15.4710   67.7440   30.0640 C   0  0  2  0  0  0  0  0  0  0  0  0
   14.6890   68.2450   31.2900 C   0  0  1  0  0  0  0  0  0  0  0  0
   15.5760   69.0240   32.3120 C   0  0  2  0  0  0  0  0  0  0  0  0
   16.9480   69.1400   31.9730 O   0  0  0  0  0  0  0  0  0  0  0  0
   18.7350   67.5920   32.0360 C   0  0  0  0  0  0  0  0  0  0  0  0
   21.2650   67.5680   31.7270 C   0  0  0  0  0  0  0  0  0  0  0  0
   22.5090   68.1680   31.6710 C   0  0  0  0  0  0  0  0  0  0  0  0
   23.6670   67.4520   31.9770 C   0  0  0  0  0  0  0  0  0  0  0  0
   23.5560   66.0820   32.3260 C   0  0  0  0  0  0  0  0  0  0  0  0
   24.6980   65.3290   32.6470 C   0  0  0  0  0  0  0  0  0  0  0  0
   24.5540   63.9790   32.9840 C   0  0  0  0  0  0  0  0  0  0  0  0
   23.3060   63.3730   33.0200 C   0  0  0  0  0  0  0  0  0  0  0  0
   22.1680   64.1160   32.7070 C   0  0  0  0  0  0  0  0  0  0  0  0
   22.3120   65.4720   32.3540 C   0  0  0  0  0  0  0  0  0  0  0  0
   21.1700   66.1950   32.0410 C   0  0  0  0  0  0  0  0  0  0  0  0
   14.6720   66.8420   29.3030 O   0  0  0  0  0  0  0  0  0  0  0  0
   15.0860   65.9410   29.3520 H   0  0  0  0  0  0  0  0  0  0  0  0
   17.3450   66.3250   29.4870 O   0  0  0  0  0  0  0  0  0  0  0  0
   17.2560   66.8770   28.6830 H   0  0  0  0  0  0  0  0  0  0  0  0
   13.5930   69.0510   30.8210 O   0  0  0  0  0  0  0  0  0  0  0  0
   13.3830   69.7500   31.5120 H   0  0  0  0  0  0  0  0  0  0  0  0
   15.4230   68.4620   33.7290 C   0  0  0  0  0  0  0  0  0  0  0  0
   14.9290   67.1330   33.7220 O   0  0  0  0  0  0  0  0  0  0  0  0
   13.9570   67.1720   33.6320 H   0  0  0  0  0  0  0  0  0  0  0  0
  1 12  1  6  0  0  0
  1 11  1  0  0  0  0
  2  4  1  0  0  0  0
  2  1  1  0  0  0  0
  3  2  1  0  0  0  0
  4  5  1  0  0  0  0
  5 10  1  0  0  0  0
  5 11  1  1  0  0  0
  6  5  1  6  0  0  0
  7 22  1  1  0  0  0
  7  6  1  0  0  0  0
  7  8  1  0  0  0  0
  8 26  1  6  0  0  0
  8  9  1  0  0  0  0
  9 28  1  1  0  0  0
 10  9  1  0  0  0  0
 12 21  1  0  0  0  0
 13 12  2  0  0  0  0
 13 14  1  0  0  0  0
 14 15  2  0  0  0  0
 15 20  1  0  0  0  0
 15 16  1  0  0  0  0
 16 17  2  0  0  0  0
 17 18  1  0  0  0  0
 19 18  2  0  0  0  0
 20 19  1  0  0  0  0
 21 20  2  0  0  0  0
 22 23  1  0  0  0  0
 24  6  1  0  0  0  0
 25 24  1  0  0  0  0
 26 27  1  0  0  0  0
 29 28  1  0  0  0  0
 30 29  1  0  0  0  0
M  END
>  <minimizedAffinity>
-8.54652214

$$$$

 OpenBabel12271915163D

 30 33  0  0  1  0  0  0  0  0999 V2000
   20.2680   68.1670   31.4870 C   0  0  1  0  0  0  0  0  0  0  0  0
   19.4950   68.0510   30.3090 N   0  0  0  0  0  0  0  0  0  0  0  0
   18.7540   67.3330   30.4270 H   0  0  0  0  0  0  0  0  0  0  0  0
   18.7110   69.2810   30.3230 O   0  0  0  0  0  0  0  0  0  0  0  0
   18.3730   69.5460   31.6770 C   0  0  2  0  0  0  0  0  0  0  0  0
   16.8740   69.2130   31.7780 C   0  0  1  0  0  0  0  0  0  0  0  0
   16.0880   70.3500   31.1940 C   0  0  2  0  0  0  0  0  0  0  0  0
   16.2880   71.5650   32.1160 C   0  0  1  0  0  0  0  0  0  0  0  0
   17.7830   71.8180   32.4880 C   0  0  2  0  0  0  0  0  0  0  0  0
   18.7170   70.9010   31.9430 O   0  0  0  0  0  0  0  0  0  0  0  0
   19.2560   68.6660   32.4970 C   0  0  0  0  0  0  0  0  0  0  0  0
   20.9860   66.8990   31.8800 C   0  0  0  0  0  0  0  0  0  0  0  0
   20.3630   65.7090   32.2090 C   0  0  0  0  0  0  0  0  0  0  0  0
   21.1070   64.5720   32.5260 C   0  0  0  0  0  0  0  0  0  0  0  0
   22.5230   64.6570   32.5330 C   0  0  0  0  0  0  0  0  0  0  0  0
   23.3080   63.5330   32.8420 C   0  0  0  0  0  0  0  0  0  0  0  0
   24.7010   63.6510   32.8430 C   0  0  0  0  0  0  0  0  0  0  0  0
   25.3240   64.8520   32.5330 C   0  0  0  0  0  0  0  0  0  0  0  0
   24.5510   65.9710   32.2210 C   0  0  0  0  0  0  0  0  0  0  0  0
   23.1470   65.8570   32.2330 C   0  0  0  0  0  0  0  0  0  0  0  0
   22.3940   66.9800   31.9240 C   0  0  0  0  0  0  0  0  0  0  0  0
   14.7040   70.0270   31.0940 O   0  0  0  0  0  0  0  0  0  0  0  0
   14.5590   69.1400   31.5180 H   0  0  0  0  0  0  0  0  0  0  0  0
   16.4890   67.9640   31.1230 O   0  0  0  0  0  0  0  0  0  0  0  0
   16.3740   68.1760   30.1740 H   0  0  0  0  0  0  0  0  0  0  0  0
   15.7010   72.7110   31.4760 O   0  0  0  0  0  0  0  0  0  0  0  0
   16.2030   73.5360   31.7590 H   0  0  0  0  0  0  0  0  0  0  0  0
   17.9730   71.9330   34.0040 C   0  0  0  0  0  0  0  0  0  0  0  0
   16.9160   72.6530   34.6160 O   0  0  0  0  0  0  0  0  0  0  0  0
   17.1020   73.6060   34.5200 H   0  0  0  0  0  0  0  0  0  0  0  0
  1 12  1  1  0  0  0
  1 11  1  0  0  0  0
  2  4  1  0  0  0  0
  2  3  1  0  0  0  0
  2  1  1  0  0  0  0
  4  5  1  0  0  0  0
  5 10  1  0  0  0  0
  5 11  1  1  0  0  0
  6  5  1  6  0  0  0
  7 22  1  1  0  0  0
  7  6  1  0  0  0  0
  7  8  1  0  0  0  0
  8 26  1  6  0  0  0
  8  9  1  0  0  0  0
  9 28  1  1  0  0  0
 10  9  1  0  0  0  0
 12 21  2  0  0  0  0
 12 13  1  0  0  0  0
 13 14  2  0  0  0  0
 14 15  1  0  0  0  0
 15 16  2  0  0  0  0
 16 17  1  0  0  0  0
 18 17  2  0  0  0  0
 19 20  2  0  0  0  0
 19 18  1  0  0  0  0
 20 15  1  0  0  0  0
 21 20  1  0  0  0  0
 22 23  1  0  0  0  0
 24  6  1  0  0  0  0
 25 24  1  0  0  0  0
 26 27  1  0  0  0  0
 28 29  1  0  0  0  0
 30 29  1  0  0  0  0
M  END
>  <minimizedAffinity>
-8.51267529

$$$$
