
 OpenBabel12271915153D

 27 29  0  0  1  0  0  0  0  0999 V2000
   23.6230   65.0010   32.2900 C   0  0  1  0  0  0  0  0  0  0  0  0
   24.2410   65.4940   33.4880 N   0  0  0  0  0  0  0  0  0  0  0  0
   24.8700   66.3570   33.3470 H   0  0  0  0  0  0  0  0  0  0  0  0
   25.2960   64.4630   33.8520 O   0  0  0  0  0  0  0  0  0  0  0  0
   24.8810   63.2770   33.0870 C   0  0  2  0  0  0  0  0  0  0  0  0
   24.8610   62.0120   33.9530 C   0  0  1  0  0  0  0  0  0  0  0  0
   26.2460   61.3750   34.0720 C   0  0  2  0  0  0  0  0  0  0  0  0
   26.7770   61.1690   32.6750 C   0  0  1  0  0  0  0  0  0  0  0  0
   26.9470   62.5360   32.0360 C   0  0  2  0  0  0  0  0  0  0  0  0
   25.6580   63.1250   31.8760 O   0  0  0  0  0  0  0  0  0  0  0  0
   23.5000   63.5310   32.5880 C   0  0  0  0  0  0  0  0  0  0  0  0
   22.2740   65.6480   32.1950 C   0  0  0  0  0  0  0  0  0  0  0  0
   21.0900   64.9270   32.4460 C   0  0  0  0  0  0  0  0  0  0  0  0
   19.8120   65.5180   32.3380 C   0  0  0  0  0  0  0  0  0  0  0  0
   19.7370   66.8450   31.9770 C   0  0  0  0  0  0  0  0  0  0  0  0
   18.3690   67.5000   31.8760 C   0  0  0  0  0  0  0  0  0  0  0  0
   20.8810   67.5890   31.7410 C   0  0  0  0  0  0  0  0  0  0  0  0
   22.1420   66.9920   31.8520 C   0  0  0  0  0  0  0  0  0  0  0  0
   26.1010   60.0820   34.7600 O   0  0  0  0  0  0  0  0  0  0  0  0
   25.3340   59.6330   34.3530 H   0  0  0  0  0  0  0  0  0  0  0  0
   24.3360   62.3640   35.2720 O   0  0  0  0  0  0  0  0  0  0  0  0
   23.8380   61.5630   35.6110 H   0  0  0  0  0  0  0  0  0  0  0  0
   28.0160   60.4180   32.6590 O   0  0  0  0  0  0  0  0  0  0  0  0
   28.7680   61.0290   32.5540 H   0  0  0  0  0  0  0  0  0  0  0  0
   27.4550   62.4140   30.6150 C   0  0  0  0  0  0  0  0  0  0  0  0
   28.9110   62.2590   30.6810 O   0  0  0  0  0  0  0  0  0  0  0  0
   29.2760   62.8680   30.0000 H   0  0  0  0  0  0  0  0  0  0  0  0
  1 12  1  1  0  0  0
  1 11  1  0  0  0  0
  1  2  1  0  0  0  0
  2  4  1  0  0  0  0
  3  2  1  0  0  0  0
  5 11  1  6  0  0  0
  5  4  1  0  0  0  0
  6  5  1  6  0  0  0
  6  7  1  0  0  0  0
  6 21  1  0  0  0  0
  7 19  1  6  0  0  0
  8 23  1  1  0  0  0
  8  7  1  0  0  0  0
  9 25  1  6  0  0  0
  9  8  1  0  0  0  0
 10  9  1  0  0  0  0
 10  5  1  0  0  0  0
 12 13  2  0  0  0  0
 14 13  1  0  0  0  0
 15 14  2  0  0  0  0
 16 15  1  0  0  0  0
 17 18  2  0  0  0  0
 17 15  1  0  0  0  0
 18 12  1  0  0  0  0
 20 19  1  0  0  0  0
 21 22  1  0  0  0  0
 24 23  1  0  0  0  0
 25 26  1  0  0  0  0
 27 26  1  0  0  0  0
M  END
>  <minimizedAffinity>
-8.45322323

$$$$

 OpenBabel12271915153D

 27 29  0  0  1  0  0  0  0  0999 V2000
   20.0020   62.2070   32.5140 C   0  0  1  0  0  0  0  0  0  0  0  0
   20.3190   61.4850   31.3140 N   0  0  0  0  0  0  0  0  0  0  0  0
   20.1230   62.0220   30.4020 H   0  0  0  0  0  0  0  0  0  0  0  0
   19.2620   60.3980   31.2070 O   0  0  0  0  0  0  0  0  0  0  0  0
   18.7170   60.3270   32.5710 C   0  0  2  0  0  0  0  0  0  0  0  0
   18.6360   58.8840   33.0840 C   0  0  1  0  0  0  0  0  0  0  0  0
   17.3690   58.1740   32.6050 C   0  0  2  0  0  0  0  0  0  0  0  0
   16.1910   59.0390   32.9800 C   0  0  1  0  0  0  0  0  0  0  0  0
   16.3100   60.3440   32.2140 C   0  0  2  0  0  0  0  0  0  0  0  0
   17.4630   61.0410   32.6820 O   0  0  0  0  0  0  0  0  0  0  0  0
   19.6370   61.0940   33.4580 C   0  0  0  0  0  0  0  0  0  0  0  0
   21.2570   62.8990   32.9530 C   0  0  0  0  0  0  0  0  0  0  0  0
   22.1060   62.3380   33.9280 C   0  0  0  0  0  0  0  0  0  0  0  0
   23.2800   62.9900   34.3670 C   0  0  0  0  0  0  0  0  0  0  0  0
   23.5920   64.2110   33.8130 C   0  0  0  0  0  0  0  0  0  0  0  0
   24.8620   64.9140   34.2630 C   0  0  0  0  0  0  0  0  0  0  0  0
   22.7900   64.7830   32.8400 C   0  0  0  0  0  0  0  0  0  0  0  0
   21.6300   64.1270   32.4130 C   0  0  0  0  0  0  0  0  0  0  0  0
   17.2850   56.8730   33.2860 O   0  0  0  0  0  0  0  0  0  0  0  0
   17.4890   57.0350   34.2280 H   0  0  0  0  0  0  0  0  0  0  0  0
   19.8310   58.1690   32.6390 O   0  0  0  0  0  0  0  0  0  0  0  0
   20.0510   57.4960   33.3490 H   0  0  0  0  0  0  0  0  0  0  0  0
   14.9230   58.3870   32.7230 O   0  0  0  0  0  0  0  0  0  0  0  0
   14.5450   58.7200   31.8890 H   0  0  0  0  0  0  0  0  0  0  0  0
   15.1720   61.2830   32.5560 C   0  0  0  0  0  0  0  0  0  0  0  0
   14.1040   61.0530   31.5780 O   0  0  0  0  0  0  0  0  0  0  0  0
   13.8070   61.9460   31.2920 H   0  0  0  0  0  0  0  0  0  0  0  0
  1 12  1  1  0  0  0
  1 11  1  0  0  0  0
  2  1  1  0  0  0  0
  3  2  1  0  0  0  0
  4  2  1  0  0  0  0
  4  5  1  0  0  0  0
  5 10  1  0  0  0  0
  5 11  1  1  0  0  0
  6  5  1  6  0  0  0
  7  8  1  0  0  0  0
  7  6  1  0  0  0  0
  7 19  1  1  0  0  0
  8 23  1  6  0  0  0
  9 25  1  1  0  0  0
  9 10  1  0  0  0  0
  9  8  1  0  0  0  0
 12 13  2  0  0  0  0
 13 14  1  0  0  0  0
 15 16  1  0  0  0  0
 15 14  2  0  0  0  0
 17 15  1  0  0  0  0
 18 17  2  0  0  0  0
 18 12  1  0  0  0  0
 19 20  1  0  0  0  0
 21  6  1  0  0  0  0
 21 22  1  0  0  0  0
 24 23  1  0  0  0  0
 26 25  1  0  0  0  0
 27 26  1  0  0  0  0
M  END
>  <minimizedAffinity>
-7.9828763

$$$$

 OpenBabel12271915153D

 27 29  0  0  1  0  0  0  0  0999 V2000
   20.7620   62.4340   33.1530 C   0  0  1  0  0  0  0  0  0  0  0  0
   20.2860   63.2790   34.2120 N   0  0  0  0  0  0  0  0  0  0  0  0
   20.3340   62.8400   35.1930 H   0  0  0  0  0  0  0  0  0  0  0  0
   18.7780   63.3410   34.0300 O   0  0  0  0  0  0  0  0  0  0  0  0
   18.5910   62.8930   32.6420 C   0  0  2  0  0  0  0  0  0  0  0  0
   17.6640   63.8280   31.8550 C   0  0  1  0  0  0  0  0  0  0  0  0
   16.1880   63.5070   32.0940 C   0  0  2  0  0  0  0  0  0  0  0  0
   15.9860   62.0390   31.8080 C   0  0  1  0  0  0  0  0  0  0  0  0
   16.8030   61.2530   32.8170 C   0  0  2  0  0  0  0  0  0  0  0  0
   18.1860   61.5050   32.5780 O   0  0  0  0  0  0  0  0  0  0  0  0
   19.9310   62.8970   31.9880 C   0  0  0  0  0  0  0  0  0  0  0  0
   22.2100   62.7640   32.9490 C   0  0  0  0  0  0  0  0  0  0  0  0
   22.6120   63.9010   32.2200 C   0  0  0  0  0  0  0  0  0  0  0  0
   23.9730   64.2120   32.0010 C   0  0  0  0  0  0  0  0  0  0  0  0
   24.9260   63.3670   32.5240 C   0  0  0  0  0  0  0  0  0  0  0  0
   26.3940   63.6990   32.3120 C   0  0  0  0  0  0  0  0  0  0  0  0
   24.5670   62.2500   33.2600 C   0  0  0  0  0  0  0  0  0  0  0  0
   23.2160   61.9540   33.4710 C   0  0  0  0  0  0  0  0  0  0  0  0
   15.3830   64.3230   31.1720 O   0  0  0  0  0  0  0  0  0  0  0  0
   15.8140   64.2620   30.2960 H   0  0  0  0  0  0  0  0  0  0  0  0
   17.9640   65.2060   32.2410 O   0  0  0  0  0  0  0  0  0  0  0  0
   17.8040   65.7770   31.4330 H   0  0  0  0  0  0  0  0  0  0  0  0
   14.5890   61.6560   31.8410 O   0  0  0  0  0  0  0  0  0  0  0  0
   14.3860   61.2310   32.6940 H   0  0  0  0  0  0  0  0  0  0  0  0
   16.6750   59.7620   32.5800 C   0  0  0  0  0  0  0  0  0  0  0  0
   15.6840   59.2500   33.5320 O   0  0  0  0  0  0  0  0  0  0  0  0
   16.0770   58.4310   33.9120 H   0  0  0  0  0  0  0  0  0  0  0  0
  1 12  1  6  0  0  0
  1  2  1  0  0  0  0
  2  3  1  0  0  0  0
  4  2  1  0  0  0  0
  5 11  1  6  0  0  0
  5  4  1  0  0  0  0
  6  7  1  0  0  0  0
  6 21  1  0  0  0  0
  6  5  1  1  0  0  0
  7 19  1  6  0  0  0
  8 23  1  1  0  0  0
  8  7  1  0  0  0  0
  8  9  1  0  0  0  0
  9 25  1  6  0  0  0
 10  5  1  0  0  0  0
 10  9  1  0  0  0  0
 11  1  1  0  0  0  0
 12 18  2  0  0  0  0
 13 12  1  0  0  0  0
 14 13  2  0  0  0  0
 14 15  1  0  0  0  0
 15 17  2  0  0  0  0
 16 15  1  0  0  0  0
 17 18  1  0  0  0  0
 20 19  1  0  0  0  0
 22 21  1  0  0  0  0
 23 24  1  0  0  0  0
 25 26  1  0  0  0  0
 26 27  1  0  0  0  0
M  END
>  <minimizedAffinity>
-7.81329155

$$$$

 OpenBabel12271915153D

 27 29  0  0  1  0  0  0  0  0999 V2000
   20.3470   63.2880   32.4330 C   0  0  1  0  0  0  0  0  0  0  0  0
   20.0060   62.0940   31.7120 N   0  0  0  0  0  0  0  0  0  0  0  0
   20.3850   62.0530   30.7060 H   0  0  0  0  0  0  0  0  0  0  0  0
   18.5180   62.2100   31.4240 O   0  0  0  0  0  0  0  0  0  0  0  0
   18.0710   63.2330   32.3800 C   0  0  2  0  0  0  0  0  0  0  0  0
   16.8140   62.7980   33.1440 C   0  0  1  0  0  0  0  0  0  0  0  0
   15.5370   63.0690   32.3490 C   0  0  2  0  0  0  0  0  0  0  0  0
   15.5510   64.5230   31.9430 C   0  0  1  0  0  0  0  0  0  0  0  0
   16.7310   64.7340   31.0120 C   0  0  2  0  0  0  0  0  0  0  0  0
   17.9340   64.5290   31.7510 O   0  0  0  0  0  0  0  0  0  0  0  0
   19.1740   63.4360   33.3630 C   0  0  0  0  0  0  0  0  0  0  0  0
   21.6060   62.9950   33.1930 C   0  0  0  0  0  0  0  0  0  0  0  0
   21.8510   61.7240   33.7510 C   0  0  0  0  0  0  0  0  0  0  0  0
   23.0230   61.4400   34.4890 C   0  0  0  0  0  0  0  0  0  0  0  0
   23.9460   62.4480   34.6570 C   0  0  0  0  0  0  0  0  0  0  0  0
   25.2190   62.1510   35.4330 C   0  0  0  0  0  0  0  0  0  0  0  0
   23.7450   63.7030   34.1080 C   0  0  0  0  0  0  0  0  0  0  0  0
   22.5810   63.9720   33.3780 C   0  0  0  0  0  0  0  0  0  0  0  0
   14.3840   62.7930   33.2200 O   0  0  0  0  0  0  0  0  0  0  0  0
   14.5800   63.2060   34.0840 H   0  0  0  0  0  0  0  0  0  0  0  0
   16.9360   61.3750   33.4580 O   0  0  0  0  0  0  0  0  0  0  0  0
   16.4700   61.2290   34.3340 H   0  0  0  0  0  0  0  0  0  0  0  0
   14.3070   64.9370   31.3250 O   0  0  0  0  0  0  0  0  0  0  0  0
   14.4120   64.9540   30.3560 H   0  0  0  0  0  0  0  0  0  0  0  0
   16.8310   66.1820   30.5780 C   0  0  0  0  0  0  0  0  0  0  0  0
   16.0190   66.3330   29.3670 O   0  0  0  0  0  0  0  0  0  0  0  0
   16.5710   66.8530   28.7390 H   0  0  0  0  0  0  0  0  0  0  0  0
  1 12  1  1  0  0  0
  1 11  1  0  0  0  0
  2  1  1  0  0  0  0
  3  2  1  0  0  0  0
  4  2  1  0  0  0  0
  4  5  1  0  0  0  0
  5 11  1  1  0  0  0
  6  5  1  6  0  0  0
  6 21  1  0  0  0  0
  7  6  1  0  0  0  0
  7 19  1  1  0  0  0
  8 23  1  6  0  0  0
  8  7  1  0  0  0  0
  9 25  1  1  0  0  0
  9 10  1  0  0  0  0
  9  8  1  0  0  0  0
 10  5  1  0  0  0  0
 12 18  2  0  0  0  0
 12 13  1  0  0  0  0
 13 14  2  0  0  0  0
 14 15  1  0  0  0  0
 15 16  1  0  0  0  0
 17 15  2  0  0  0  0
 18 17  1  0  0  0  0
 19 20  1  0  0  0  0
 21 22  1  0  0  0  0
 24 23  1  0  0  0  0
 26 25  1  0  0  0  0
 27 26  1  0  0  0  0
M  END
>  <minimizedAffinity>
-7.8111887

$$$$

 OpenBabel12271915153D

 27 29  0  0  1  0  0  0  0  0999 V2000
   19.9880   63.1430   32.7050 C   0  0  1  0  0  0  0  0  0  0  0  0
   19.8020   62.0770   31.7600 N   0  0  0  0  0  0  0  0  0  0  0  0
   20.1610   62.2890   30.7680 H   0  0  0  0  0  0  0  0  0  0  0  0
   18.3070   62.0350   31.4910 O   0  0  0  0  0  0  0  0  0  0  0  0
   17.7420   62.7760   32.6280 C   0  0  2  0  0  0  0  0  0  0  0  0
   16.5760   62.0250   33.2830 C   0  0  1  0  0  0  0  0  0  0  0  0
   15.2550   62.2630   32.5500 C   0  0  2  0  0  0  0  0  0  0  0  0
   15.0560   63.7550   32.4390 C   0  0  1  0  0  0  0  0  0  0  0  0
   16.1740   64.3100   31.5750 C   0  0  2  0  0  0  0  0  0  0  0  0
   17.4090   64.1370   32.2660 O   0  0  0  0  0  0  0  0  0  0  0  0
   18.8270   62.9370   33.6380 C   0  0  0  0  0  0  0  0  0  0  0  0
   21.2920   62.8880   33.3990 C   0  0  0  0  0  0  0  0  0  0  0  0
   22.2620   63.9010   33.5420 C   0  0  0  0  0  0  0  0  0  0  0  0
   23.5040   63.6690   34.1750 C   0  0  0  0  0  0  0  0  0  0  0  0
   23.7600   62.4070   34.6620 C   0  0  0  0  0  0  0  0  0  0  0  0
   25.0850   62.1490   35.3610 C   0  0  0  0  0  0  0  0  0  0  0  0
   22.8230   61.3930   34.5540 C   0  0  0  0  0  0  0  0  0  0  0  0
   21.5960   61.6360   33.9270 C   0  0  0  0  0  0  0  0  0  0  0  0
   14.1730   61.6600   33.3430 O   0  0  0  0  0  0  0  0  0  0  0  0
   14.3280   61.9200   34.2720 H   0  0  0  0  0  0  0  0  0  0  0  0
   16.9040   60.6010   33.3120 O   0  0  0  0  0  0  0  0  0  0  0  0
   16.4820   60.2210   34.1380 H   0  0  0  0  0  0  0  0  0  0  0  0
   13.7530   64.1010   31.9070 O   0  0  0  0  0  0  0  0  0  0  0  0
   13.8330   64.3230   30.9620 H   0  0  0  0  0  0  0  0  0  0  0  0
   16.0600   65.8140   31.4360 C   0  0  0  0  0  0  0  0  0  0  0  0
   15.4420   66.3230   32.6640 O   0  0  0  0  0  0  0  0  0  0  0  0
   14.7530   66.9620   32.3710 H   0  0  0  0  0  0  0  0  0  0  0  0
  1 12  1  1  0  0  0
  1 11  1  0  0  0  0
  2  1  1  0  0  0  0
  3  2  1  0  0  0  0
  4  2  1  0  0  0  0
  4  5  1  0  0  0  0
  5 11  1  1  0  0  0
  6  5  1  6  0  0  0
  6 21  1  0  0  0  0
  7  6  1  0  0  0  0
  7 19  1  1  0  0  0
  8 23  1  6  0  0  0
  8  7  1  0  0  0  0
  9 25  1  1  0  0  0
  9 10  1  0  0  0  0
  9  8  1  0  0  0  0
 10  5  1  0  0  0  0
 12 13  2  0  0  0  0
 12 18  1  0  0  0  0
 13 14  1  0  0  0  0
 14 15  2  0  0  0  0
 15 16  1  0  0  0  0
 17 15  1  0  0  0  0
 18 17  2  0  0  0  0
 19 20  1  0  0  0  0
 21 22  1  0  0  0  0
 24 23  1  0  0  0  0
 25 26  1  0  0  0  0
 27 26  1  0  0  0  0
M  END
>  <minimizedAffinity>
-7.75786924

$$$$

 OpenBabel12271915153D

 27 29  0  0  1  0  0  0  0  0999 V2000
   19.4980   66.8720   32.3640 C   0  0  1  0  0  0  0  0  0  0  0  0
   20.6010   67.6650   31.8990 N   0  0  0  0  0  0  0  0  0  0  0  0
   21.3200   67.9240   32.6570 H   0  0  0  0  0  0  0  0  0  0  0  0
   20.0170   69.0390   31.6150 O   0  0  0  0  0  0  0  0  0  0  0  0
   18.5730   68.7760   31.5240 C   0  0  2  0  0  0  0  0  0  0  0  0
   17.9480   69.4160   30.2790 C   0  0  1  0  0  0  0  0  0  0  0  0
   17.6040   70.8890   30.5020 C   0  0  2  0  0  0  0  0  0  0  0  0
   16.7530   70.9770   31.7460 C   0  0  1  0  0  0  0  0  0  0  0  0
   17.5960   70.5130   32.9190 C   0  0  2  0  0  0  0  0  0  0  0  0
   17.8880   69.1280   32.7490 O   0  0  0  0  0  0  0  0  0  0  0  0
   18.3950   67.2980   31.4350 C   0  0  0  0  0  0  0  0  0  0  0  0
   19.8690   65.4360   32.1420 C   0  0  0  0  0  0  0  0  0  0  0  0
   21.1520   64.9470   32.4600 C   0  0  0  0  0  0  0  0  0  0  0  0
   21.5210   63.6020   32.2350 C   0  0  0  0  0  0  0  0  0  0  0  0
   20.5860   62.7540   31.6870 C   0  0  0  0  0  0  0  0  0  0  0  0
   20.9640   61.3000   31.4570 C   0  0  0  0  0  0  0  0  0  0  0  0
   19.3100   63.1960   31.3790 C   0  0  0  0  0  0  0  0  0  0  0  0
   18.9560   64.5300   31.6080 C   0  0  0  0  0  0  0  0  0  0  0  0
   16.8510   71.3690   29.3330 O   0  0  0  0  0  0  0  0  0  0  0  0
   16.1840   70.6840   29.1280 H   0  0  0  0  0  0  0  0  0  0  0  0
   18.8830   69.2650   29.1650 O   0  0  0  0  0  0  0  0  0  0  0  0
   18.3320   69.1680   28.3330 H   0  0  0  0  0  0  0  0  0  0  0  0
   16.2270   72.3090   31.9630 O   0  0  0  0  0  0  0  0  0  0  0  0
   16.7630   72.7680   32.6360 H   0  0  0  0  0  0  0  0  0  0  0  0
   16.8020   70.5460   34.2090 C   0  0  0  0  0  0  0  0  0  0  0  0
   17.0930   71.8220   34.8700 O   0  0  0  0  0  0  0  0  0  0  0  0
   17.2580   71.6020   35.8150 H   0  0  0  0  0  0  0  0  0  0  0  0
  1 12  1  6  0  0  0
  2  1  1  0  0  0  0
  2  3  1  0  0  0  0
  4  2  1  0  0  0  0
  5 11  1  6  0  0  0
  5  4  1  0  0  0  0
  5 10  1  0  0  0  0
  6  7  1  0  0  0  0
  6  5  1  1  0  0  0
  7 19  1  6  0  0  0
  7  8  1  0  0  0  0
  8 23  1  1  0  0  0
  8  9  1  0  0  0  0
  9 25  1  1  0  0  0
 10  9  1  0  0  0  0
 11  1  1  0  0  0  0
 12 13  2  0  0  0  0
 14 13  1  0  0  0  0
 15 14  2  0  0  0  0
 16 15  1  0  0  0  0
 17 18  2  0  0  0  0
 17 15  1  0  0  0  0
 18 12  1  0  0  0  0
 20 19  1  0  0  0  0
 21  6  1  0  0  0  0
 22 21  1  0  0  0  0
 23 24  1  0  0  0  0
 25 26  1  0  0  0  0
 26 27  1  0  0  0  0
M  END
>  <minimizedAffinity>
-7.73202419

$$$$

 OpenBabel12271915153D

 27 29  0  0  1  0  0  0  0  0999 V2000
   19.7330   60.4280   32.8100 C   0  0  1  0  0  0  0  0  0  0  0  0
   20.1600   60.7110   31.4680 N   0  0  0  0  0  0  0  0  0  0  0  0
   20.6060   59.8780   30.9530 H   0  0  0  0  0  0  0  0  0  0  0  0
   21.3790   61.6070   31.6150 O   0  0  0  0  0  0  0  0  0  0  0  0
   21.2650   62.1040   32.9940 C   0  0  2  0  0  0  0  0  0  0  0  0
   21.4490   63.6240   33.0760 C   0  0  1  0  0  0  0  0  0  0  0  0
   22.9250   64.0220   33.1190 C   0  0  2  0  0  0  0  0  0  0  0  0
   23.5740   63.2500   34.2430 C   0  0  1  0  0  0  0  0  0  0  0  0
   23.5000   61.7740   33.8960 C   0  0  2  0  0  0  0  0  0  0  0  0
   22.1310   61.3760   33.8970 O   0  0  0  0  0  0  0  0  0  0  0  0
   19.8950   61.7670   33.4760 C   0  0  0  0  0  0  0  0  0  0  0  0
   18.2890   60.0330   32.7340 C   0  0  0  0  0  0  0  0  0  0  0  0
   17.2650   60.9960   32.6340 C   0  0  0  0  0  0  0  0  0  0  0  0
   15.8990   60.6380   32.5840 C   0  0  0  0  0  0  0  0  0  0  0  0
   15.5740   59.3010   32.6350 C   0  0  0  0  0  0  0  0  0  0  0  0
   14.1090   58.9010   32.5640 C   0  0  0  0  0  0  0  0  0  0  0  0
   16.5550   58.3270   32.7160 C   0  0  0  0  0  0  0  0  0  0  0  0
   17.9050   58.6940   32.7630 C   0  0  0  0  0  0  0  0  0  0  0  0
   23.0060   65.4670   33.3790 O   0  0  0  0  0  0  0  0  0  0  0  0
   22.3740   65.6580   34.1000 H   0  0  0  0  0  0  0  0  0  0  0  0
   20.7820   64.2320   31.9260 O   0  0  0  0  0  0  0  0  0  0  0  0
   20.4380   65.1240   32.2260 H   0  0  0  0  0  0  0  0  0  0  0  0
   24.9390   63.6710   34.4860 O   0  0  0  0  0  0  0  0  0  0  0  0
   25.5560   63.0400   34.0710 H   0  0  0  0  0  0  0  0  0  0  0  0
   24.1110   60.9260   34.9920 C   0  0  0  0  0  0  0  0  0  0  0  0
   25.5400   60.7890   34.6960 O   0  0  0  0  0  0  0  0  0  0  0  0
   25.7500   59.8360   34.8270 H   0  0  0  0  0  0  0  0  0  0  0  0
  1 12  1  6  0  0  0
  1 11  1  0  0  0  0
  2  4  1  0  0  0  0
  2  1  1  0  0  0  0
  3  2  1  0  0  0  0
  4  5  1  0  0  0  0
  5 11  1  1  0  0  0
  5 10  1  0  0  0  0
  6  5  1  6  0  0  0
  6  7  1  0  0  0  0
  7 19  1  1  0  0  0
  7  8  1  0  0  0  0
  8 23  1  6  0  0  0
  9 10  1  0  0  0  0
  9  8  1  0  0  0  0
  9 25  1  1  0  0  0
 12 18  2  0  0  0  0
 13 12  1  0  0  0  0
 14 13  2  0  0  0  0
 14 15  1  0  0  0  0
 15 17  2  0  0  0  0
 16 15  1  0  0  0  0
 17 18  1  0  0  0  0
 19 20  1  0  0  0  0
 21 22  1  0  0  0  0
 21  6  1  0  0  0  0
 24 23  1  0  0  0  0
 26 27  1  0  0  0  0
 26 25  1  0  0  0  0
M  END
>  <minimizedAffinity>
-7.69844913

$$$$

 OpenBabel12271915153D

 27 29  0  0  1  0  0  0  0  0999 V2000
   19.8290   63.3020   32.7940 C   0  0  1  0  0  0  0  0  0  0  0  0
   20.0270   63.4190   34.2110 N   0  0  0  0  0  0  0  0  0  0  0  0
   19.7130   64.3590   34.6330 H   0  0  0  0  0  0  0  0  0  0  0  0
   21.5290   63.5400   34.3990 O   0  0  0  0  0  0  0  0  0  0  0  0
   22.0670   63.0410   33.1250 C   0  0  2  0  0  0  0  0  0  0  0  0
   23.1870   62.0150   33.3350 C   0  0  1  0  0  0  0  0  0  0  0  0
   24.5410   62.6830   33.5740 C   0  0  2  0  0  0  0  0  0  0  0  0
   24.7810   63.6490   32.4390 C   0  0  1  0  0  0  0  0  0  0  0  0
   23.7120   64.7240   32.5110 C   0  0  2  0  0  0  0  0  0  0  0  0
   22.4460   64.1250   32.2440 O   0  0  0  0  0  0  0  0  0  0  0  0
   20.9460   62.3760   32.4000 C   0  0  0  0  0  0  0  0  0  0  0  0
   18.4920   62.6540   32.5910 C   0  0  0  0  0  0  0  0  0  0  0  0
   17.3210   63.4180   32.4180 C   0  0  0  0  0  0  0  0  0  0  0  0
   16.0510   62.8210   32.2480 C   0  0  0  0  0  0  0  0  0  0  0  0
   15.9730   61.4460   32.2540 C   0  0  0  0  0  0  0  0  0  0  0  0
   14.6170   60.7900   32.0540 C   0  0  0  0  0  0  0  0  0  0  0  0
   17.1060   60.6650   32.4040 C   0  0  0  0  0  0  0  0  0  0  0  0
   18.3580   61.2680   32.5700 C   0  0  0  0  0  0  0  0  0  0  0  0
   25.5760   61.6380   33.5830 O   0  0  0  0  0  0  0  0  0  0  0  0
   25.3900   61.0530   32.8230 H   0  0  0  0  0  0  0  0  0  0  0  0
   22.8230   61.1610   34.4650 O   0  0  0  0  0  0  0  0  0  0  0  0
   23.2020   60.2510   34.2770 H   0  0  0  0  0  0  0  0  0  0  0  0
   26.1120   64.2200   32.4730 O   0  0  0  0  0  0  0  0  0  0  0  0
   26.0760   65.1150   32.8560 H   0  0  0  0  0  0  0  0  0  0  0  0
   23.8690   65.7250   31.3840 C   0  0  0  0  0  0  0  0  0  0  0  0
   24.6210   66.8660   31.9130 O   0  0  0  0  0  0  0  0  0  0  0  0
   24.1450   67.6680   31.6000 H   0  0  0  0  0  0  0  0  0  0  0  0
  1 12  1  1  0  0  0
  1  2  1  0  0  0  0
  2  4  1  0  0  0  0
  2  3  1  0  0  0  0
  5 11  1  6  0  0  0
  5  4  1  0  0  0  0
  6  5  1  1  0  0  0
  6  7  1  0  0  0  0
  6 21  1  0  0  0  0
  7 19  1  6  0  0  0
  8 23  1  1  0  0  0
  8  9  1  0  0  0  0
  8  7  1  0  0  0  0
  9 25  1  6  0  0  0
 10  9  1  0  0  0  0
 10  5  1  0  0  0  0
 11  1  1  0  0  0  0
 13 12  2  0  0  0  0
 14 15  2  0  0  0  0
 14 13  1  0  0  0  0
 15 17  1  0  0  0  0
 16 15  1  0  0  0  0
 17 18  2  0  0  0  0
 18 12  1  0  0  0  0
 20 19  1  0  0  0  0
 22 21  1  0  0  0  0
 23 24  1  0  0  0  0
 25 26  1  0  0  0  0
 27 26  1  0  0  0  0
M  END
>  <minimizedAffinity>
-7.53277922

$$$$

 OpenBabel12271915153D

 27 29  0  0  1  0  0  0  0  0999 V2000
   19.6890   61.6070   33.1990 C   0  0  1  0  0  0  0  0  0  0  0  0
   19.6530   61.9170   34.6010 N   0  0  0  0  0  0  0  0  0  0  0  0
   19.0100   62.7400   34.8620 H   0  0  0  0  0  0  0  0  0  0  0  0
   21.0060   62.5350   34.9110 O   0  0  0  0  0  0  0  0  0  0  0  0
   21.8340   62.1170   33.7710 C   0  0  2  0  0  0  0  0  0  0  0  0
   23.1790   61.5340   34.2190 C   0  0  1  0  0  0  0  0  0  0  0  0
   24.2150   62.6240   34.4940 C   0  0  2  0  0  0  0  0  0  0  0  0
   24.2910   63.5030   33.2690 C   0  0  1  0  0  0  0  0  0  0  0  0
   22.9410   64.1760   33.0970 C   0  0  2  0  0  0  0  0  0  0  0  0
   21.9710   63.1760   32.7940 O   0  0  0  0  0  0  0  0  0  0  0  0
   21.0810   61.0600   33.0380 C   0  0  0  0  0  0  0  0  0  0  0  0
   18.6590   60.5450   32.9590 C   0  0  0  0  0  0  0  0  0  0  0  0
   17.2990   60.8650   32.7730 C   0  0  0  0  0  0  0  0  0  0  0  0
   16.3140   59.8740   32.5680 C   0  0  0  0  0  0  0  0  0  0  0  0
   16.7120   58.5550   32.5510 C   0  0  0  0  0  0  0  0  0  0  0  0
   15.6650   57.4790   32.3130 C   0  0  0  0  0  0  0  0  0  0  0  0
   18.0420   58.2060   32.7130 C   0  0  0  0  0  0  0  0  0  0  0  0
   19.0080   59.1980   32.9140 C   0  0  0  0  0  0  0  0  0  0  0  0
   25.5130   61.9760   34.7390 O   0  0  0  0  0  0  0  0  0  0  0  0
   25.6200   61.2930   34.0480 H   0  0  0  0  0  0  0  0  0  0  0  0
   22.9540   60.7200   35.4130 O   0  0  0  0  0  0  0  0  0  0  0  0
   23.6170   59.9690   35.3840 H   0  0  0  0  0  0  0  0  0  0  0  0
   25.3620   64.4750   33.3520 O   0  0  0  0  0  0  0  0  0  0  0  0
   25.0000   65.3420   33.6080 H   0  0  0  0  0  0  0  0  0  0  0  0
   22.9260   65.0610   31.8670 C   0  0  0  0  0  0  0  0  0  0  0  0
   23.3990   66.3870   32.2760 O   0  0  0  0  0  0  0  0  0  0  0  0
   22.7750   67.0300   31.8670 H   0  0  0  0  0  0  0  0  0  0  0  0
  1 12  1  1  0  0  0
  1  2  1  0  0  0  0
  2  3  1  0  0  0  0
  2  4  1  0  0  0  0
  5 11  1  6  0  0  0
  5  4  1  0  0  0  0
  6  5  1  1  0  0  0
  6  7  1  0  0  0  0
  6 21  1  0  0  0  0
  7 19  1  6  0  0  0
  8 23  1  1  0  0  0
  8  7  1  0  0  0  0
  9 25  1  6  0  0  0
  9  8  1  0  0  0  0
 10  9  1  0  0  0  0
 10  5  1  0  0  0  0
 11  1  1  0  0  0  0
 13 12  2  0  0  0  0
 14 13  1  0  0  0  0
 15 14  2  0  0  0  0
 15 17  1  0  0  0  0
 16 15  1  0  0  0  0
 17 18  2  0  0  0  0
 18 12  1  0  0  0  0
 20 19  1  0  0  0  0
 22 21  1  0  0  0  0
 23 24  1  0  0  0  0
 25 26  1  0  0  0  0
 27 26  1  0  0  0  0
M  END
>  <minimizedAffinity>
-7.47172403

$$$$
