
 OpenBabel12271915173D

 22 23  0  0  1  0  0  0  0  0999 V2000
   23.9040   66.9510   31.6200 C   0  0  2  0  0  0  0  0  0  0  0  0
   22.5780   66.6210   32.2810 C   0  0  2  0  0  0  0  0  0  0  0  0
   22.7500   65.2120   32.4990 O   0  0  0  0  0  0  0  0  0  0  0  0
   23.9500   65.2310   33.2560 C   0  0  2  0  0  0  0  0  0  0  0  0
   24.8700   66.2320   32.5570 C   0  0  0  0  0  0  0  0  0  0  0  0
   24.6000   63.9000   33.3900 C   0  0  0  0  0  0  0  0  0  0  0  0
   24.0370   63.0160   34.3200 C   0  0  0  0  0  0  0  0  0  0  0  0
   24.6490   61.8030   34.5690 C   0  0  0  0  0  0  0  0  0  0  0  0
   24.0260   60.8970   35.5720 C   0  0  0  0  0  0  0  0  0  0  0  0
   25.7970   61.4960   33.8600 C   0  0  0  0  0  0  0  0  0  0  0  0
   26.3420   62.3300   32.9540 N   0  0  0  0  0  0  0  0  0  0  0  0
   25.7490   63.5200   32.7280 C   0  0  0  0  0  0  0  0  0  0  0  0
   26.4350   60.3050   34.0880 O   0  0  0  0  0  0  0  0  0  0  0  0
   25.9970   59.5760   33.5950 H   0  0  0  0  0  0  0  0  0  0  0  0
   24.2380   68.3150   31.5430 O   0  0  0  0  0  0  0  0  0  0  0  0
   24.0620   68.6310   30.6360 H   0  0  0  0  0  0  0  0  0  0  0  0
   21.3290   66.9670   31.5270 C   0  0  0  0  0  0  0  0  0  0  0  0
   21.0370   68.3180   31.8240 O   0  0  0  0  0  0  0  0  0  0  0  0
   19.4490   68.7150   32.0360 P   0  0  0  0  0  0  0  0  0  0  0  0
   18.8120   67.4140   32.5570 O   0  0  0  0  0  0  0  0  0  0  0  0
   18.8780   69.0930   30.6430 O   0  0  0  0  0  0  0  0  0  0  0  0
   19.3760   69.8620   33.0820 O   0  0  0  0  0  0  0  0  0  0  0  0
  1 15  1  1  0  0  0
  1  2  1  0  0  0  0
  1  5  1  0  0  0  0
  2 17  1  6  0  0  0
  2  3  1  0  0  0  0
  3  4  1  0  0  0  0
  4  6  1  6  0  0  0
  5  4  1  0  0  0  0
  6  7  1  0  0  0  0
  7  8  2  0  0  0  0
  8  9  1  0  0  0  0
 10 13  1  0  0  0  0
 10  8  1  0  0  0  0
 11 10  2  0  0  0  0
 12 11  1  0  0  0  0
 12  6  2  0  0  0  0
 14 13  1  0  0  0  0
 16 15  1  0  0  0  0
 17 18  1  0  0  0  0
 18 19  1  0  0  0  0
 19 20  1  0  0  0  0
 19 22  1  0  0  0  0
 21 19  2  0  0  0  0
M  END
>  <minimizedAffinity>
-7.55217695

$$$$

 OpenBabel12271915173D

 22 23  0  0  1  0  0  0  0  0999 V2000
   23.1660   65.5250   32.1820 C   0  0  2  0  0  0  0  0  0  0  0  0
   22.2380   64.6480   33.0040 C   0  0  2  0  0  0  0  0  0  0  0  0
   22.9700   63.4120   32.9770 O   0  0  0  0  0  0  0  0  0  0  0  0
   24.2090   63.8560   33.5110 C   0  0  2  0  0  0  0  0  0  0  0  0
   24.5090   65.1860   32.8220 C   0  0  0  0  0  0  0  0  0  0  0  0
   25.3240   62.8880   33.3320 C   0  0  0  0  0  0  0  0  0  0  0  0
   26.1330   63.0650   32.2020 C   0  0  0  0  0  0  0  0  0  0  0  0
   27.1240   62.1450   31.9190 C   0  0  0  0  0  0  0  0  0  0  0  0
   27.9550   62.3620   30.7040 C   0  0  0  0  0  0  0  0  0  0  0  0
   27.2940   61.0830   32.7890 C   0  0  0  0  0  0  0  0  0  0  0  0
   26.5320   60.9080   33.8850 N   0  0  0  0  0  0  0  0  0  0  0  0
   25.5560   61.8010   34.1470 C   0  0  0  0  0  0  0  0  0  0  0  0
   28.2610   60.1460   32.5340 O   0  0  0  0  0  0  0  0  0  0  0  0
   29.1410   60.4660   32.8330 H   0  0  0  0  0  0  0  0  0  0  0  0
   22.9380   66.9110   32.2540 O   0  0  0  0  0  0  0  0  0  0  0  0
   22.4640   67.1930   31.4480 H   0  0  0  0  0  0  0  0  0  0  0  0
   20.8200   64.5190   32.5360 C   0  0  0  0  0  0  0  0  0  0  0  0
   20.0390   64.2320   33.6780 O   0  0  0  0  0  0  0  0  0  0  0  0
   19.4200   62.7080   33.8030 P   0  0  0  0  0  0  0  0  0  0  0  0
   19.8280   62.2610   35.2180 O   0  0  0  0  0  0  0  0  0  0  0  0
   20.1170   61.8370   32.7240 O   0  0  0  0  0  0  0  0  0  0  0  0
   17.8770   62.8000   33.6410 O   0  0  0  0  0  0  0  0  0  0  0  0
  1 15  1  1  0  0  0
  1  5  1  0  0  0  0
  1  2  1  0  0  0  0
  2 17  1  6  0  0  0
  3  2  1  0  0  0  0
  3  4  1  0  0  0  0
  4  6  1  6  0  0  0
  5  4  1  0  0  0  0
  6 12  2  0  0  0  0
  7  6  1  0  0  0  0
  8  7  2  0  0  0  0
  8 10  1  0  0  0  0
  9  8  1  0  0  0  0
 10 11  2  0  0  0  0
 11 12  1  0  0  0  0
 13 10  1  0  0  0  0
 13 14  1  0  0  0  0
 16 15  1  0  0  0  0
 17 18  1  0  0  0  0
 18 19  1  0  0  0  0
 19 20  1  0  0  0  0
 21 19  2  0  0  0  0
 22 19  1  0  0  0  0
M  END
>  <minimizedAffinity>
-7.53893042

$$$$

 OpenBabel12271915173D

 22 23  0  0  1  0  0  0  0  0999 V2000
   21.3310   63.9790   33.0050 C   0  0  2  0  0  0  0  0  0  0  0  0
   21.0130   63.4940   34.4080 C   0  0  2  0  0  0  0  0  0  0  0  0
   22.0540   62.5190   34.5780 O   0  0  0  0  0  0  0  0  0  0  0  0
   23.1900   63.3350   34.3360 C   0  0  2  0  0  0  0  0  0  0  0  0
   22.8390   64.1890   33.1170 C   0  0  0  0  0  0  0  0  0  0  0  0
   24.4460   62.5710   34.1190 C   0  0  0  0  0  0  0  0  0  0  0  0
   25.2240   62.9410   33.0140 C   0  0  0  0  0  0  0  0  0  0  0  0
   26.3510   62.2090   32.6930 C   0  0  0  0  0  0  0  0  0  0  0  0
   27.1440   62.6280   31.5060 C   0  0  0  0  0  0  0  0  0  0  0  0
   26.6840   61.1390   33.5040 C   0  0  0  0  0  0  0  0  0  0  0  0
   25.9530   60.7800   34.5770 N   0  0  0  0  0  0  0  0  0  0  0  0
   24.8450   61.4880   34.8740 C   0  0  0  0  0  0  0  0  0  0  0  0
   27.7900   60.3850   33.2110 O   0  0  0  0  0  0  0  0  0  0  0  0
   28.6060   60.8240   33.5410 H   0  0  0  0  0  0  0  0  0  0  0  0
   20.7110   65.1770   32.6050 O   0  0  0  0  0  0  0  0  0  0  0  0
   19.9570   64.9610   32.0240 H   0  0  0  0  0  0  0  0  0  0  0  0
   19.6360   62.9560   34.6530 C   0  0  0  0  0  0  0  0  0  0  0  0
   19.4520   61.8820   33.7520 O   0  0  0  0  0  0  0  0  0  0  0  0
   18.1520   61.9640   32.7400 P   0  0  0  0  0  0  0  0  0  0  0  0
   18.1450   60.5920   32.0410 O   0  0  0  0  0  0  0  0  0  0  0  0
   18.4300   63.1020   31.7230 O   0  0  0  0  0  0  0  0  0  0  0  0
   16.8810   62.1850   33.6050 O   0  0  0  0  0  0  0  0  0  0  0  0
  1 15  1  1  0  0  0
  1  5  1  0  0  0  0
  1  2  1  0  0  0  0
  2  3  1  0  0  0  0
  2 17  1  6  0  0  0
  4  6  1  6  0  0  0
  4  3  1  0  0  0  0
  5  4  1  0  0  0  0
  6 12  2  0  0  0  0
  7  6  1  0  0  0  0
  8  7  2  0  0  0  0
  8 10  1  0  0  0  0
  9  8  1  0  0  0  0
 10 11  2  0  0  0  0
 11 12  1  0  0  0  0
 13 10  1  0  0  0  0
 13 14  1  0  0  0  0
 16 15  1  0  0  0  0
 18 17  1  0  0  0  0
 19 22  1  0  0  0  0
 19 18  1  0  0  0  0
 20 19  1  0  0  0  0
 21 19  2  0  0  0  0
M  END
>  <minimizedAffinity>
-7.53383875

$$$$

 OpenBabel12271915173D

 22 23  0  0  1  0  0  0  0  0999 V2000
   19.2400   61.2390   32.2500 C   0  0  2  0  0  0  0  0  0  0  0  0
   18.5740   62.5520   31.8800 C   0  0  2  0  0  0  0  0  0  0  0  0
   19.4730   63.4770   32.5110 O   0  0  0  0  0  0  0  0  0  0  0  0
   20.6910   63.0850   31.8950 C   0  0  2  0  0  0  0  0  0  0  0  0
   20.6930   61.5570   31.9070 C   0  0  0  0  0  0  0  0  0  0  0  0
   21.9050   63.6330   32.5570 C   0  0  0  0  0  0  0  0  0  0  0  0
   22.5760   62.7810   33.4440 C   0  0  0  0  0  0  0  0  0  0  0  0
   23.6510   63.2570   34.1690 C   0  0  0  0  0  0  0  0  0  0  0  0
   24.3300   62.3240   35.1090 C   0  0  0  0  0  0  0  0  0  0  0  0
   24.0420   64.5690   33.9690 C   0  0  0  0  0  0  0  0  0  0  0  0
   23.4140   65.3950   33.1110 N   0  0  0  0  0  0  0  0  0  0  0  0
   22.3550   64.9290   32.4180 C   0  0  0  0  0  0  0  0  0  0  0  0
   25.0980   65.0770   34.6780 O   0  0  0  0  0  0  0  0  0  0  0  0
   25.9510   64.8140   34.2660 H   0  0  0  0  0  0  0  0  0  0  0  0
   18.8180   60.1040   31.5350 O   0  0  0  0  0  0  0  0  0  0  0  0
   18.2030   59.5910   32.0950 H   0  0  0  0  0  0  0  0  0  0  0  0
   17.1410   62.7330   32.2820 C   0  0  0  0  0  0  0  0  0  0  0  0
   16.4040   61.7220   31.6260 O   0  0  0  0  0  0  0  0  0  0  0  0
   15.3830   60.8150   32.5520 P   0  0  0  0  0  0  0  0  0  0  0  0
   15.3410   61.5660   33.8950 O   0  0  0  0  0  0  0  0  0  0  0  0
   16.0310   59.4150   32.7190 O   0  0  0  0  0  0  0  0  0  0  0  0
   13.9950   60.7890   31.8540 O   0  0  0  0  0  0  0  0  0  0  0  0
  1 15  1  6  0  0  0
  2  1  1  0  0  0  0
  2 17  1  1  0  0  0
  2  3  1  0  0  0  0
  4  5  1  0  0  0  0
  4  3  1  0  0  0  0
  4  6  1  1  0  0  0
  5  1  1  0  0  0  0
  6  7  1  0  0  0  0
  7  8  2  0  0  0  0
  8  9  1  0  0  0  0
 10  8  1  0  0  0  0
 10 13  1  0  0  0  0
 11 10  2  0  0  0  0
 12  6  2  0  0  0  0
 12 11  1  0  0  0  0
 14 13  1  0  0  0  0
 15 16  1  0  0  0  0
 18 17  1  0  0  0  0
 18 19  1  0  0  0  0
 19 21  1  0  0  0  0
 19 20  1  0  0  0  0
 22 19  2  0  0  0  0
M  END
>  <minimizedAffinity>
-7.27333641

$$$$

 OpenBabel12271915173D

 22 23  0  0  1  0  0  0  0  0999 V2000
   22.8850   66.2750   31.8720 C   0  0  2  0  0  0  0  0  0  0  0  0
   21.8010   65.4740   32.5720 C   0  0  2  0  0  0  0  0  0  0  0  0
   22.4510   64.1960   32.6600 O   0  0  0  0  0  0  0  0  0  0  0  0
   23.6310   64.5750   33.3520 C   0  0  2  0  0  0  0  0  0  0  0  0
   24.1060   65.8690   32.6930 C   0  0  0  0  0  0  0  0  0  0  0  0
   24.6970   63.5370   33.3380 C   0  0  0  0  0  0  0  0  0  0  0  0
   25.6060   63.5850   32.2730 C   0  0  0  0  0  0  0  0  0  0  0  0
   26.5580   62.5930   32.1410 C   0  0  0  0  0  0  0  0  0  0  0  0
   27.4980   62.6730   30.9900 C   0  0  0  0  0  0  0  0  0  0  0  0
   26.5920   61.5920   33.0950 C   0  0  0  0  0  0  0  0  0  0  0  0
   25.7330   61.5410   34.1320 N   0  0  0  0  0  0  0  0  0  0  0  0
   24.7950   62.5030   34.2450 C   0  0  0  0  0  0  0  0  0  0  0  0
   27.5180   60.5870   32.9920 O   0  0  0  0  0  0  0  0  0  0  0  0
   28.3890   60.8810   33.3420 H   0  0  0  0  0  0  0  0  0  0  0  0
   22.7370   67.6740   31.8940 O   0  0  0  0  0  0  0  0  0  0  0  0
   22.3950   67.9670   31.0280 H   0  0  0  0  0  0  0  0  0  0  0  0
   20.4530   65.4230   31.9180 C   0  0  0  0  0  0  0  0  0  0  0  0
   19.6070   66.2740   32.6640 O   0  0  0  0  0  0  0  0  0  0  0  0
   19.1010   67.6630   31.9310 P   0  0  0  0  0  0  0  0  0  0  0  0
   19.1300   67.3170   30.4310 O   0  0  0  0  0  0  0  0  0  0  0  0
   20.1400   68.7660   32.2660 O   0  0  0  0  0  0  0  0  0  0  0  0
   17.6640   67.9750   32.4320 O   0  0  0  0  0  0  0  0  0  0  0  0
  1 15  1  1  0  0  0
  1  2  1  0  0  0  0
  1  5  1  0  0  0  0
  2 17  1  6  0  0  0
  2  3  1  0  0  0  0
  3  4  1  0  0  0  0
  4  6  1  6  0  0  0
  5  4  1  0  0  0  0
  6 12  2  0  0  0  0
  7  6  1  0  0  0  0
  8  7  2  0  0  0  0
  8 10  1  0  0  0  0
  9  8  1  0  0  0  0
 10 11  2  0  0  0  0
 11 12  1  0  0  0  0
 13 10  1  0  0  0  0
 13 14  1  0  0  0  0
 16 15  1  0  0  0  0
 17 18  1  0  0  0  0
 19 21  1  0  0  0  0
 19 22  1  0  0  0  0
 19 18  1  0  0  0  0
 20 19  2  0  0  0  0
M  END
>  <minimizedAffinity>
-7.27244806

$$$$

 OpenBabel12271915173D

 22 23  0  0  1  0  0  0  0  0999 V2000
   23.0650   66.5940   31.7630 C   0  0  2  0  0  0  0  0  0  0  0  0
   22.0680   65.8310   32.6160 C   0  0  2  0  0  0  0  0  0  0  0  0
   22.6380   64.5140   32.5510 O   0  0  0  0  0  0  0  0  0  0  0  0
   23.9420   64.7920   33.0360 C   0  0  2  0  0  0  0  0  0  0  0  0
   24.3800   66.0830   32.3440 C   0  0  0  0  0  0  0  0  0  0  0  0
   24.9190   63.6950   32.8040 C   0  0  0  0  0  0  0  0  0  0  0  0
   25.0170   62.7190   33.8050 C   0  0  0  0  0  0  0  0  0  0  0  0
   25.9740   61.7280   33.7030 C   0  0  0  0  0  0  0  0  0  0  0  0
   26.0540   60.7170   34.7920 C   0  0  0  0  0  0  0  0  0  0  0  0
   26.7920   61.7260   32.5870 C   0  0  0  0  0  0  0  0  0  0  0  0
   26.7000   62.6500   31.6120 N   0  0  0  0  0  0  0  0  0  0  0  0
   25.7750   63.6240   31.7260 C   0  0  0  0  0  0  0  0  0  0  0  0
   27.7580   60.7620   32.4570 O   0  0  0  0  0  0  0  0  0  0  0  0
   27.3710   59.9270   32.1130 H   0  0  0  0  0  0  0  0  0  0  0  0
   23.0150   67.9970   31.8530 O   0  0  0  0  0  0  0  0  0  0  0  0
   22.5490   68.3460   31.0690 H   0  0  0  0  0  0  0  0  0  0  0  0
   20.6270   65.8870   32.2070 C   0  0  0  0  0  0  0  0  0  0  0  0
   19.9730   64.8300   32.8790 O   0  0  0  0  0  0  0  0  0  0  0  0
   19.0370   63.8220   31.9660 P   0  0  0  0  0  0  0  0  0  0  0  0
   18.3720   62.9000   33.0040 O   0  0  0  0  0  0  0  0  0  0  0  0
   19.9900   63.0200   31.0410 O   0  0  0  0  0  0  0  0  0  0  0  0
   17.9980   64.6900   31.2040 O   0  0  0  0  0  0  0  0  0  0  0  0
  1 15  1  1  0  0  0
  1  5  1  0  0  0  0
  1  2  1  0  0  0  0
  2 17  1  6  0  0  0
  3  2  1  0  0  0  0
  3  4  1  0  0  0  0
  4  6  1  6  0  0  0
  5  4  1  0  0  0  0
  6  7  1  0  0  0  0
  8  7  2  0  0  0  0
  8  9  1  0  0  0  0
 10  8  1  0  0  0  0
 11 12  1  0  0  0  0
 11 10  2  0  0  0  0
 12  6  2  0  0  0  0
 13 10  1  0  0  0  0
 14 13  1  0  0  0  0
 16 15  1  0  0  0  0
 17 18  1  0  0  0  0
 19 18  1  0  0  0  0
 19 20  1  0  0  0  0
 21 19  2  0  0  0  0
 22 19  1  0  0  0  0
M  END
>  <minimizedAffinity>
-7.19527054

$$$$

 OpenBabel12271915173D

 22 23  0  0  1  0  0  0  0  0999 V2000
   20.7380   62.0980   31.7120 C   0  0  2  0  0  0  0  0  0  0  0  0
   20.5290   62.2820   33.2040 C   0  0  2  0  0  0  0  0  0  0  0  0
   20.5470   63.7160   33.2860 O   0  0  0  0  0  0  0  0  0  0  0  0
   19.5100   64.0220   32.3670 C   0  0  2  0  0  0  0  0  0  0  0  0
   19.7340   63.1070   31.1630 C   0  0  0  0  0  0  0  0  0  0  0  0
   19.4660   65.4520   31.9600 C   0  0  0  0  0  0  0  0  0  0  0  0
   20.6770   66.1560   32.0080 C   0  0  0  0  0  0  0  0  0  0  0  0
   20.6910   67.5110   31.7420 C   0  0  0  0  0  0  0  0  0  0  0  0
   21.9950   68.2250   31.8140 C   0  0  0  0  0  0  0  0  0  0  0  0
   19.4950   68.1220   31.4100 C   0  0  0  0  0  0  0  0  0  0  0  0
   18.3270   67.4550   31.3480 N   0  0  0  0  0  0  0  0  0  0  0  0
   18.3170   66.1360   31.6250 C   0  0  0  0  0  0  0  0  0  0  0  0
   19.4710   69.4670   31.1480 O   0  0  0  0  0  0  0  0  0  0  0  0
   19.7600   69.6460   30.2260 H   0  0  0  0  0  0  0  0  0  0  0  0
   20.4600   60.8190   31.1980 O   0  0  0  0  0  0  0  0  0  0  0  0
   21.3030   60.3460   31.0590 H   0  0  0  0  0  0  0  0  0  0  0  0
   21.5060   61.6130   34.1240 C   0  0  0  0  0  0  0  0  0  0  0  0
   22.4390   62.6000   34.5140 O   0  0  0  0  0  0  0  0  0  0  0  0
   24.0360   62.2620   34.2760 P   0  0  0  0  0  0  0  0  0  0  0  0
   24.7600   63.4960   34.8430 O   0  0  0  0  0  0  0  0  0  0  0  0
   24.2590   62.1430   32.7450 O   0  0  0  0  0  0  0  0  0  0  0  0
   24.3770   60.9690   35.0680 O   0  0  0  0  0  0  0  0  0  0  0  0
  1 15  1  6  0  0  0
  1  2  1  0  0  0  0
  2  3  1  0  0  0  0
  2 17  1  1  0  0  0
  4  6  1  6  0  0  0
  4  3  1  0  0  0  0
  5  1  1  0  0  0  0
  5  4  1  0  0  0  0
  6  7  1  0  0  0  0
  8  9  1  0  0  0  0
  8  7  2  0  0  0  0
 10  8  1  0  0  0  0
 11 10  2  0  0  0  0
 11 12  1  0  0  0  0
 12  6  2  0  0  0  0
 13 10  1  0  0  0  0
 14 13  1  0  0  0  0
 16 15  1  0  0  0  0
 17 18  1  0  0  0  0
 19 18  1  0  0  0  0
 19 20  1  0  0  0  0
 19 22  1  0  0  0  0
 21 19  2  0  0  0  0
M  END
>  <minimizedAffinity>
-7.164958

$$$$

 OpenBabel12271915173D

 22 23  0  0  1  0  0  0  0  0999 V2000
   18.7440   63.7310   32.0040 C   0  0  2  0  0  0  0  0  0  0  0  0
   18.7050   62.4200   32.7670 C   0  0  2  0  0  0  0  0  0  0  0  0
   20.0900   62.0470   32.6980 O   0  0  0  0  0  0  0  0  0  0  0  0
   20.6790   63.2020   33.2750 C   0  0  2  0  0  0  0  0  0  0  0  0
   19.9550   64.3960   32.6530 C   0  0  0  0  0  0  0  0  0  0  0  0
   22.1490   63.2950   33.0730 C   0  0  0  0  0  0  0  0  0  0  0  0
   22.6720   64.5740   32.8380 C   0  0  0  0  0  0  0  0  0  0  0  0
   24.0130   64.7210   32.5420 C   0  0  0  0  0  0  0  0  0  0  0  0
   24.5280   66.0940   32.2870 C   0  0  0  0  0  0  0  0  0  0  0  0
   24.8020   63.5850   32.5120 C   0  0  0  0  0  0  0  0  0  0  0  0
   24.3160   62.3510   32.7490 N   0  0  0  0  0  0  0  0  0  0  0  0
   23.0020   62.2120   33.0210 C   0  0  0  0  0  0  0  0  0  0  0  0
   26.1350   63.6920   32.2130 O   0  0  0  0  0  0  0  0  0  0  0  0
   26.6480   63.9660   33.0060 H   0  0  0  0  0  0  0  0  0  0  0  0
   17.6160   64.5620   32.1340 O   0  0  0  0  0  0  0  0  0  0  0  0
   17.0660   64.4710   31.3330 H   0  0  0  0  0  0  0  0  0  0  0  0
   17.7690   61.3610   32.2680 C   0  0  0  0  0  0  0  0  0  0  0  0
   16.6570   62.0320   31.7090 O   0  0  0  0  0  0  0  0  0  0  0  0
   15.2390   61.9660   32.5490 P   0  0  0  0  0  0  0  0  0  0  0  0
   14.7280   63.4180   32.5230 O   0  0  0  0  0  0  0  0  0  0  0  0
   15.5800   61.5240   33.9970 O   0  0  0  0  0  0  0  0  0  0  0  0
   14.2820   60.9960   31.8020 O   0  0  0  0  0  0  0  0  0  0  0  0
  1 15  1  1  0  0  0
  1  5  1  0  0  0  0
  1  2  1  0  0  0  0
  2 17  1  6  0  0  0
  3  2  1  0  0  0  0
  3  4  1  0  0  0  0
  4  6  1  6  0  0  0
  5  4  1  0  0  0  0
  7  6  1  0  0  0  0
  8  7  2  0  0  0  0
  9  8  1  0  0  0  0
 10  8  1  0  0  0  0
 10 11  2  0  0  0  0
 11 12  1  0  0  0  0
 12  6  2  0  0  0  0
 13 10  1  0  0  0  0
 13 14  1  0  0  0  0
 16 15  1  0  0  0  0
 18 17  1  0  0  0  0
 18 19  1  0  0  0  0
 19 21  1  0  0  0  0
 20 19  1  0  0  0  0
 22 19  2  0  0  0  0
M  END
>  <minimizedAffinity>
-7.08134794

$$$$

 OpenBabel12271915173D

 22 23  0  0  1  0  0  0  0  0999 V2000
   21.0050   62.0050   31.8690 C   0  0  2  0  0  0  0  0  0  0  0  0
   21.6020   62.4480   33.1930 C   0  0  2  0  0  0  0  0  0  0  0  0
   21.6310   63.8690   32.9930 O   0  0  0  0  0  0  0  0  0  0  0  0
   20.2600   64.0990   32.7050 C   0  0  2  0  0  0  0  0  0  0  0  0
   19.8410   62.9850   31.7460 C   0  0  0  0  0  0  0  0  0  0  0  0
   19.9810   65.4420   32.1300 C   0  0  0  0  0  0  0  0  0  0  0  0
   18.7550   65.6010   31.4710 C   0  0  0  0  0  0  0  0  0  0  0  0
   18.4730   66.7890   30.8260 C   0  0  0  0  0  0  0  0  0  0  0  0
   17.1650   66.9150   30.1280 C   0  0  0  0  0  0  0  0  0  0  0  0
   19.4190   67.7980   30.8780 C   0  0  0  0  0  0  0  0  0  0  0  0
   20.5960   67.6640   31.5190 N   0  0  0  0  0  0  0  0  0  0  0  0
   20.8710   66.4950   32.1320 C   0  0  0  0  0  0  0  0  0  0  0  0
   19.1770   68.9880   30.2420 O   0  0  0  0  0  0  0  0  0  0  0  0
   18.6040   69.5660   30.7940 H   0  0  0  0  0  0  0  0  0  0  0  0
   20.5260   60.6840   31.8140 O   0  0  0  0  0  0  0  0  0  0  0  0
   21.1820   60.1310   31.3470 H   0  0  0  0  0  0  0  0  0  0  0  0
   22.9290   61.8650   33.5780 C   0  0  0  0  0  0  0  0  0  0  0  0
   23.8610   62.3020   32.6100 O   0  0  0  0  0  0  0  0  0  0  0  0
   25.3160   62.8500   33.1610 P   0  0  0  0  0  0  0  0  0  0  0  0
   25.5270   62.0750   34.4730 O   0  0  0  0  0  0  0  0  0  0  0  0
   25.1640   64.3700   33.4330 O   0  0  0  0  0  0  0  0  0  0  0  0
   26.3950   62.5030   32.0970 O   0  0  0  0  0  0  0  0  0  0  0  0
  1 15  1  1  0  0  0
  1  2  1  0  0  0  0
  2 17  1  6  0  0  0
  3  2  1  0  0  0  0
  4  6  1  6  0  0  0
  4  3  1  0  0  0  0
  5  1  1  0  0  0  0
  5  4  1  0  0  0  0
  6 12  2  0  0  0  0
  7  6  1  0  0  0  0
  8 10  1  0  0  0  0
  8  7  2  0  0  0  0
  9  8  1  0  0  0  0
 10 11  2  0  0  0  0
 11 12  1  0  0  0  0
 13 14  1  0  0  0  0
 13 10  1  0  0  0  0
 16 15  1  0  0  0  0
 18 19  1  0  0  0  0
 18 17  1  0  0  0  0
 19 21  1  0  0  0  0
 19 20  1  0  0  0  0
 22 19  2  0  0  0  0
M  END
>  <minimizedAffinity>
-7.0730691

$$$$
