
 OpenBabel12271915193D

 25 29  0  0  1  0  0  0  0  0999 V2000
   21.7630   61.8770   32.4800 C   0  0  1  0  0  0  0  0  0  0  0  0
   22.8170   62.9940   32.4600 C   0  0  1  0  0  0  0  0  0  0  0  0
   22.4000   64.4320   32.2800 C   0  0  0  0  0  0  0  0  0  0  0  0
   21.0700   64.7680   32.1070 C   0  0  0  0  0  0  0  0  0  0  0  0
   20.6870   66.0780   31.9660 C   0  0  0  0  0  0  0  0  0  0  0  0
   19.4150   66.5650   31.8070 O   0  0  0  0  0  0  0  0  0  0  0  0
   19.5920   67.9780   31.6350 C   0  0  0  0  0  0  0  0  0  0  0  0
   20.9660   68.3330   31.8410 O   0  0  0  0  0  0  0  0  0  0  0  0
   21.5970   67.1120   31.9860 C   0  0  0  0  0  0  0  0  0  0  0  0
   22.9230   66.8390   32.1500 C   0  0  0  0  0  0  0  0  0  0  0  0
   23.3520   65.5060   32.3050 C   0  0  0  0  0  0  0  0  0  0  0  0
   24.8330   65.4420   32.5080 C   0  0  0  0  0  0  0  0  0  0  0  0
   25.3020   64.2280   33.2830 C   0  0  0  0  0  0  0  0  0  0  0  0
   24.3170   63.8350   34.3290 N   0  0  2  0  0  0  0  0  0  0  0  0
   23.7620   64.6580   34.6140 H   0  0  0  0  0  0  0  0  0  0  0  0
   24.9860   63.2560   35.5240 C   0  0  0  0  0  0  0  0  0  0  0  0
   25.3080   61.8290   35.0890 C   0  0  0  0  0  0  0  0  0  0  0  0
   24.3360   61.5180   33.9480 C   0  0  0  0  0  0  0  0  0  0  0  0
   23.4300   62.7510   33.8650 C   0  0  2  0  0  0  0  0  0  0  0  0
   22.1770   62.5340   34.6590 C   0  0  0  0  0  0  0  0  0  0  0  0
   21.2310   62.0240   33.8770 C   0  0  1  0  0  0  0  0  0  0  0  0
   20.8240   61.9080   31.4560 O   0  0  0  0  0  0  0  0  0  0  0  0
   21.2780   62.0980   30.6330 H   0  0  0  0  0  0  0  0  0  0  0  0
   19.9300   61.8540   34.2860 O   0  0  0  0  0  0  0  0  0  0  0  0
   19.3180   62.8880   35.0440 C   0  0  0  0  0  0  0  0  0  0  0  0
  1 22  1  6  0  0  0
  1 21  1  0  0  0  0
  2  1  1  0  0  0  0
  2 19  1  1  0  0  0
  3 11  2  0  0  0  0
  3  2  1  0  0  0  0
  4  3  1  0  0  0  0
  5  9  1  0  0  0  0
  5  4  2  0  0  0  0
  6  5  1  0  0  0  0
  7  6  1  0  0  0  0
  7  8  1  0  0  0  0
  8  9  1  0  0  0  0
  9 10  2  0  0  0  0
 10 11  1  0  0  0  0
 11 12  1  0  0  0  0
 12 13  1  0  0  0  0
 13 14  1  0  0  0  0
 14 19  1  6  0  0  0
 14 15  1  0  0  0  0
 14 16  1  0  0  0  0
 17 16  1  0  0  0  0
 18 17  1  0  0  0  0
 19 18  1  6  0  0  0
 19 20  1  0  0  0  0
 21 24  1  6  0  0  0
 21 20  1  0  0  0  0
 23 22  1  0  0  0  0
 24 25  1  0  0  0  0
M  END
>  <minimizedAffinity>
-8.95270729

$$$$

 OpenBabel12271915193D

 25 29  0  0  1  0  0  0  0  0999 V2000
   21.3640   62.8960   31.9960 C   0  0  1  0  0  0  0  0  0  0  0  0
   22.2490   64.1480   31.9100 C   0  0  1  0  0  0  0  0  0  0  0  0
   21.6310   65.5220   31.9320 C   0  0  0  0  0  0  0  0  0  0  0  0
   20.2590   65.6810   32.0070 C   0  0  0  0  0  0  0  0  0  0  0  0
   19.6960   66.9320   32.0510 C   0  0  0  0  0  0  0  0  0  0  0  0
   18.3640   67.2470   32.1440 O   0  0  0  0  0  0  0  0  0  0  0  0
   18.3310   68.6790   32.0770 C   0  0  0  0  0  0  0  0  0  0  0  0
   19.6640   69.2070   32.0900 O   0  0  0  0  0  0  0  0  0  0  0  0
   20.4590   68.0780   32.0190 C   0  0  0  0  0  0  0  0  0  0  0  0
   21.8170   67.9820   31.9420 C   0  0  0  0  0  0  0  0  0  0  0  0
   22.4300   66.7140   31.9030 C   0  0  0  0  0  0  0  0  0  0  0  0
   23.9200   66.8430   31.8580 C   0  0  0  0  0  0  0  0  0  0  0  0
   24.6640   65.6550   32.4330 C   0  0  0  0  0  0  0  0  0  0  0  0
   23.9310   65.0570   33.5830 N   0  0  2  0  0  0  0  0  0  0  0  0
   23.3340   65.7730   34.0280 H   0  0  0  0  0  0  0  0  0  0  0  0
   24.8620   64.4940   34.5970 C   0  0  0  0  0  0  0  0  0  0  0  0
   25.2810   63.1600   33.9860 C   0  0  0  0  0  0  0  0  0  0  0  0
   24.1750   62.7980   32.9920 C   0  0  0  0  0  0  0  0  0  0  0  0
   23.1200   63.8960   33.1700 C   0  0  2  0  0  0  0  0  0  0  0  0
   22.0590   63.4510   34.1320 C   0  0  0  0  0  0  0  0  0  0  0  0
   21.0640   62.8700   33.4690 C   0  0  1  0  0  0  0  0  0  0  0  0
   20.2660   62.8670   31.1440 O   0  0  0  0  0  0  0  0  0  0  0  0
   20.5440   63.1760   30.2790 H   0  0  0  0  0  0  0  0  0  0  0  0
   19.8850   62.4920   34.0640 O   0  0  0  0  0  0  0  0  0  0  0  0
   19.5700   63.0290   35.3410 C   0  0  0  0  0  0  0  0  0  0  0  0
  1 22  1  6  0  0  0
  1 21  1  0  0  0  0
  2  3  1  0  0  0  0
  2  1  1  0  0  0  0
  2 19  1  1  0  0  0
  3  4  1  0  0  0  0
  4  5  2  0  0  0  0
  5  6  1  0  0  0  0
  7  8  1  0  0  0  0
  7  6  1  0  0  0  0
  9  5  1  0  0  0  0
  9  8  1  0  0  0  0
 10  9  2  0  0  0  0
 11  3  2  0  0  0  0
 11 10  1  0  0  0  0
 12 11  1  0  0  0  0
 12 13  1  0  0  0  0
 13 14  1  0  0  0  0
 14 19  1  6  0  0  0
 14 15  1  0  0  0  0
 14 16  1  0  0  0  0
 17 16  1  0  0  0  0
 18 17  1  0  0  0  0
 19 18  1  6  0  0  0
 19 20  1  0  0  0  0
 21 24  1  6  0  0  0
 21 20  1  0  0  0  0
 23 22  1  0  0  0  0
 24 25  1  0  0  0  0
M  END
>  <minimizedAffinity>
-8.86768246

$$$$

 OpenBabel12271915193D

 25 29  0  0  1  0  0  0  0  0999 V2000
   19.6410   61.9950   34.2550 C   0  0  1  0  0  0  0  0  0  0  0  0
   19.8960   63.3610   33.6000 C   0  0  1  0  0  0  0  0  0  0  0  0
   21.2740   63.7240   33.1070 C   0  0  0  0  0  0  0  0  0  0  0  0
   22.3330   62.8480   33.2540 C   0  0  0  0  0  0  0  0  0  0  0  0
   23.5820   63.1680   32.7850 C   0  0  0  0  0  0  0  0  0  0  0  0
   24.7190   62.4020   32.8390 O   0  0  0  0  0  0  0  0  0  0  0  0
   25.7410   63.2370   32.2790 C   0  0  0  0  0  0  0  0  0  0  0  0
   25.1650   64.4450   31.7620 O   0  0  0  0  0  0  0  0  0  0  0  0
   23.8420   64.3650   32.1540 C   0  0  0  0  0  0  0  0  0  0  0  0
   22.8350   65.2700   31.9850 C   0  0  0  0  0  0  0  0  0  0  0  0
   21.5380   64.9720   32.4470 C   0  0  0  0  0  0  0  0  0  0  0  0
   20.5880   66.0810   32.1230 C   0  0  0  0  0  0  0  0  0  0  0  0
   19.1440   65.6430   31.9870 C   0  0  0  0  0  0  0  0  0  0  0  0
   19.0420   64.2810   31.3920 N   0  0  2  0  0  0  0  0  0  0  0  0
   19.8750   64.0890   30.8130 H   0  0  0  0  0  0  0  0  0  0  0  0
   17.8190   64.1350   30.5590 C   0  0  0  0  0  0  0  0  0  0  0  0
   16.7150   63.9240   31.5910 C   0  0  0  0  0  0  0  0  0  0  0  0
   17.4200   63.4060   32.8470 C   0  0  0  0  0  0  0  0  0  0  0  0
   18.8850   63.2430   32.4280 C   0  0  2  0  0  0  0  0  0  0  0  0
   19.1530   61.8310   31.9990 C   0  0  0  0  0  0  0  0  0  0  0  0
   19.5700   61.1150   33.0380 C   0  0  1  0  0  0  0  0  0  0  0  0
   20.5450   61.6130   35.2390 O   0  0  0  0  0  0  0  0  0  0  0  0
   20.7170   62.3690   35.8040 H   0  0  0  0  0  0  0  0  0  0  0  0
   20.0320   59.8260   32.9250 O   0  0  0  0  0  0  0  0  0  0  0  0
   19.0840   58.7680   32.8990 C   0  0  0  0  0  0  0  0  0  0  0  0
  1 22  1  1  0  0  0
  2 19  1  6  0  0  0
  2  1  1  0  0  0  0
  3  4  1  0  0  0  0
  3  2  1  0  0  0  0
  5  6  1  0  0  0  0
  5  4  2  0  0  0  0
  7  6  1  0  0  0  0
  8  9  1  0  0  0  0
  8  7  1  0  0  0  0
  9  5  1  0  0  0  0
 10  9  2  0  0  0  0
 10 11  1  0  0  0  0
 11  3  2  0  0  0  0
 12 11  1  0  0  0  0
 13 12  1  0  0  0  0
 14 13  1  0  0  0  0
 14 19  1  1  0  0  0
 15 14  1  0  0  0  0
 16 14  1  0  0  0  0
 16 17  1  0  0  0  0
 17 18  1  0  0  0  0
 19 20  1  6  0  0  0
 19 18  1  0  0  0  0
 20 21  1  0  0  0  0
 21 24  1  6  0  0  0
 21  1  1  0  0  0  0
 22 23  1  0  0  0  0
 25 24  1  0  0  0  0
M  END
>  <minimizedAffinity>
-7.65969276

$$$$

 OpenBabel12271915193D

 25 29  0  0  1  0  0  0  0  0999 V2000
   18.7970   68.3520   30.7070 C   0  0  1  0  0  0  0  0  0  0  0  0
   18.1020   66.9850   30.7730 C   0  0  1  0  0  0  0  0  0  0  0  0
   18.7860   65.8120   31.4290 C   0  0  0  0  0  0  0  0  0  0  0  0
   20.0560   65.9410   31.9610 C   0  0  0  0  0  0  0  0  0  0  0  0
   20.6710   64.8800   32.5780 C   0  0  0  0  0  0  0  0  0  0  0  0
   21.9110   64.8580   33.1660 O   0  0  0  0  0  0  0  0  0  0  0  0
   22.0840   63.4970   33.5840 C   0  0  0  0  0  0  0  0  0  0  0  0
   20.8760   62.7550   33.3670 O   0  0  0  0  0  0  0  0  0  0  0  0
   20.0640   63.6500   32.6950 C   0  0  0  0  0  0  0  0  0  0  0  0
   18.8120   63.4650   32.1850 C   0  0  0  0  0  0  0  0  0  0  0  0
   18.1470   64.5330   31.5510 C   0  0  0  0  0  0  0  0  0  0  0  0
   16.7800   64.1210   31.1050 C   0  0  0  0  0  0  0  0  0  0  0  0
   15.7880   65.2620   31.0070 C   0  0  0  0  0  0  0  0  0  0  0  0
   16.0280   66.2850   32.0620 N   0  0  2  0  0  0  0  0  0  0  0  0
   16.4930   65.8470   32.8750 H   0  0  0  0  0  0  0  0  0  0  0  0
   14.7620   66.9250   32.5060 C   0  0  0  0  0  0  0  0  0  0  0  0
   14.4700   67.9310   31.3960 C   0  0  0  0  0  0  0  0  0  0  0  0
   15.8170   68.2000   30.7210 C   0  0  0  0  0  0  0  0  0  0  0  0
   16.8320   67.4130   31.5570 C   0  0  2  0  0  0  0  0  0  0  0  0
   17.4570   68.3000   32.5930 C   0  0  0  0  0  0  0  0  0  0  0  0
   18.5670   68.8460   32.1080 C   0  0  1  0  0  0  0  0  0  0  0  0
   20.1150   68.3460   30.2650 O   0  0  0  0  0  0  0  0  0  0  0  0
   20.1780   67.7600   29.5080 H   0  0  0  0  0  0  0  0  0  0  0  0
   19.4340   69.5900   32.8730 O   0  0  0  0  0  0  0  0  0  0  0  0
   19.0260   70.8850   33.2910 C   0  0  0  0  0  0  0  0  0  0  0  0
  1 22  1  1  0  0  0
  1  2  1  0  0  0  0
  1 21  1  0  0  0  0
  2  3  1  0  0  0  0
  2 19  1  1  0  0  0
  3 11  2  0  0  0  0
  3  4  1  0  0  0  0
  4  5  2  0  0  0  0
  5  9  1  0  0  0  0
  5  6  1  0  0  0  0
  6  7  1  0  0  0  0
  8  7  1  0  0  0  0
  9  8  1  0  0  0  0
 10  9  2  0  0  0  0
 11 10  1  0  0  0  0
 12 11  1  0  0  0  0
 13 12  1  0  0  0  0
 13 14  1  0  0  0  0
 14 19  1  6  0  0  0
 14 16  1  0  0  0  0
 14 15  1  0  0  0  0
 17 16  1  0  0  0  0
 18 17  1  0  0  0  0
 19 18  1  6  0  0  0
 19 20  1  0  0  0  0
 21 20  1  0  0  0  0
 21 24  1  1  0  0  0
 23 22  1  0  0  0  0
 24 25  1  0  0  0  0
M  END
>  <minimizedAffinity>
-7.38393927

$$$$

 OpenBabel12271915193D

 25 29  0  0  1  0  0  0  0  0999 V2000
   18.6020   62.8170   31.5500 C   0  0  1  0  0  0  0  0  0  0  0  0
   19.8520   63.7010   31.6720 C   0  0  1  0  0  0  0  0  0  0  0  0
   19.7190   65.1970   31.7960 C   0  0  0  0  0  0  0  0  0  0  0  0
   18.4750   65.8020   31.7790 C   0  0  0  0  0  0  0  0  0  0  0  0
   18.3510   67.1620   31.9140 C   0  0  0  0  0  0  0  0  0  0  0  0
   17.1940   67.8980   31.9350 O   0  0  0  0  0  0  0  0  0  0  0  0
   17.6390   69.2590   32.0230 C   0  0  0  0  0  0  0  0  0  0  0  0
   19.0620   69.3050   32.2000 O   0  0  0  0  0  0  0  0  0  0  0  0
   19.4460   67.9840   32.0690 C   0  0  0  0  0  0  0  0  0  0  0  0
   20.6970   67.4430   32.0890 C   0  0  0  0  0  0  0  0  0  0  0  0
   20.8620   66.0490   31.9600 C   0  0  0  0  0  0  0  0  0  0  0  0
   22.3070   65.6720   32.0480 C   0  0  0  0  0  0  0  0  0  0  0  0
   22.5530   64.2630   32.5460 C   0  0  0  0  0  0  0  0  0  0  0  0
   21.5410   63.8600   33.5620 N   0  0  2  0  0  0  0  0  0  0  0  0
   21.1660   64.6990   34.0340 H   0  0  0  0  0  0  0  0  0  0  0  0
   22.1180   62.9410   34.5790 C   0  0  0  0  0  0  0  0  0  0  0  0
   22.1430   61.5950   33.8610 C   0  0  0  0  0  0  0  0  0  0  0  0
   21.0970   61.7030   32.7490 C   0  0  0  0  0  0  0  0  0  0  0  0
   20.4470   63.0740   32.9620 C   0  0  2  0  0  0  0  0  0  0  0  0
   19.1980   62.9400   33.7820 C   0  0  0  0  0  0  0  0  0  0  0  0
   18.1490   62.7810   32.9830 C   0  0  1  0  0  0  0  0  0  0  0  0
   17.6570   63.2250   30.6160 O   0  0  0  0  0  0  0  0  0  0  0  0
   18.1150   63.4870   29.8150 H   0  0  0  0  0  0  0  0  0  0  0  0
   16.8520   62.7770   33.4380 O   0  0  0  0  0  0  0  0  0  0  0  0
   16.0500   61.6320   33.1860 C   0  0  0  0  0  0  0  0  0  0  0  0
  1 22  1  6  0  0  0
  1  2  1  0  0  0  0
  1 21  1  0  0  0  0
  2  3  1  0  0  0  0
  2 19  1  1  0  0  0
  3 11  2  0  0  0  0
  4  3  1  0  0  0  0
  4  5  2  0  0  0  0
  5  6  1  0  0  0  0
  5  9  1  0  0  0  0
  6  7  1  0  0  0  0
  7  8  1  0  0  0  0
  9 10  2  0  0  0  0
  9  8  1  0  0  0  0
 11 12  1  0  0  0  0
 11 10  1  0  0  0  0
 12 13  1  0  0  0  0
 13 14  1  0  0  0  0
 14 19  1  6  0  0  0
 14 15  1  0  0  0  0
 14 16  1  0  0  0  0
 17 16  1  0  0  0  0
 18 17  1  0  0  0  0
 19 18  1  6  0  0  0
 19 20  1  0  0  0  0
 21 24  1  6  0  0  0
 21 20  1  0  0  0  0
 23 22  1  0  0  0  0
 25 24  1  0  0  0  0
M  END
>  <minimizedAffinity>
-7.34231615

$$$$

 OpenBabel12271915193D

 25 29  0  0  1  0  0  0  0  0999 V2000
   23.4600   62.6650   34.6560 C   0  0  1  0  0  0  0  0  0  0  0  0
   22.1980   63.3240   34.0800 C   0  0  1  0  0  0  0  0  0  0  0  0
   22.2940   64.6290   33.3310 C   0  0  0  0  0  0  0  0  0  0  0  0
   23.5120   65.2650   33.1690 C   0  0  0  0  0  0  0  0  0  0  0  0
   23.6040   66.4410   32.4680 C   0  0  0  0  0  0  0  0  0  0  0  0
   24.7340   67.1730   32.2080 O   0  0  0  0  0  0  0  0  0  0  0  0
   24.2560   68.3320   31.5110 C   0  0  0  0  0  0  0  0  0  0  0  0
   22.8550   68.2020   31.2360 O   0  0  0  0  0  0  0  0  0  0  0  0
   22.5030   67.0410   31.8990 C   0  0  0  0  0  0  0  0  0  0  0  0
   21.2750   66.4610   32.0300 C   0  0  0  0  0  0  0  0  0  0  0  0
   21.1440   65.2490   32.7370 C   0  0  0  0  0  0  0  0  0  0  0  0
   19.7250   64.7740   32.7230 C   0  0  0  0  0  0  0  0  0  0  0  0
   19.5700   63.2740   32.8690 C   0  0  0  0  0  0  0  0  0  0  0  0
   20.6820   62.5440   32.1970 N   0  0  2  0  0  0  0  0  0  0  0  0
   21.0710   63.1230   31.4360 H   0  0  0  0  0  0  0  0  0  0  0  0
   20.2280   61.2420   31.6410 C   0  0  0  0  0  0  0  0  0  0  0  0
   20.1810   60.3340   32.8680 C   0  0  0  0  0  0  0  0  0  0  0  0
   21.1190   60.9790   33.8910 C   0  0  0  0  0  0  0  0  0  0  0  0
   21.7420   62.1670   33.1510 C   0  0  2  0  0  0  0  0  0  0  0  0
   23.0630   61.7790   32.5550 C   0  0  0  0  0  0  0  0  0  0  0  0
   24.0410   62.0490   33.4140 C   0  0  1  0  0  0  0  0  0  0  0  0
   24.3030   63.4950   35.3840 O   0  0  0  0  0  0  0  0  0  0  0  0
   23.7660   64.0440   35.9600 H   0  0  0  0  0  0  0  0  0  0  0  0
   25.3720   61.9380   33.0940 O   0  0  0  0  0  0  0  0  0  0  0  0
   26.0020   63.0270   32.4340 C   0  0  0  0  0  0  0  0  0  0  0  0
  1 22  1  6  0  0  0
  2 19  1  6  0  0  0
  2  1  1  0  0  0  0
  3  2  1  0  0  0  0
  4  3  1  0  0  0  0
  5  4  2  0  0  0  0
  6  5  1  0  0  0  0
  7  6  1  0  0  0  0
  8  7  1  0  0  0  0
  8  9  1  0  0  0  0
  9 10  2  0  0  0  0
  9  5  1  0  0  0  0
 10 11  1  0  0  0  0
 11  3  2  0  0  0  0
 12 11  1  0  0  0  0
 12 13  1  0  0  0  0
 14 13  1  0  0  0  0
 14 19  1  1  0  0  0
 15 14  1  0  0  0  0
 16 14  1  0  0  0  0
 16 17  1  0  0  0  0
 17 18  1  0  0  0  0
 19 20  1  6  0  0  0
 19 18  1  0  0  0  0
 20 21  1  0  0  0  0
 21 24  1  6  0  0  0
 21  1  1  0  0  0  0
 22 23  1  0  0  0  0
 25 24  1  0  0  0  0
M  END
>  <minimizedAffinity>
-7.00229883

$$$$

 OpenBabel12271915193D

 25 29  0  0  1  0  0  0  0  0999 V2000
   19.9110   64.2080   33.6440 C   0  0  1  0  0  0  0  0  0  0  0  0
   20.8240   65.3670   33.2170 C   0  0  1  0  0  0  0  0  0  0  0  0
   22.2650   65.1090   32.8580 C   0  0  0  0  0  0  0  0  0  0  0  0
   22.7960   63.8340   32.9280 C   0  0  0  0  0  0  0  0  0  0  0  0
   24.1010   63.5950   32.5790 C   0  0  0  0  0  0  0  0  0  0  0  0
   24.7600   62.3910   32.5780 O   0  0  0  0  0  0  0  0  0  0  0  0
   26.1050   62.7210   32.2050 C   0  0  0  0  0  0  0  0  0  0  0  0
   26.1940   64.1060   31.8460 O   0  0  0  0  0  0  0  0  0  0  0  0
   24.9400   64.6000   32.1510 C   0  0  0  0  0  0  0  0  0  0  0  0
   24.4710   65.8780   32.0660 C   0  0  0  0  0  0  0  0  0  0  0  0
   23.1340   66.1600   32.4080 C   0  0  0  0  0  0  0  0  0  0  0  0
   22.8250   67.6090   32.2050 C   0  0  0  0  0  0  0  0  0  0  0  0
   21.3640   67.9010   31.9270 C   0  0  0  0  0  0  0  0  0  0  0  0
   20.7330   66.8120   31.1300 N   0  0  2  0  0  0  0  0  0  0  0  0
   21.4540   66.3240   30.5730 H   0  0  0  0  0  0  0  0  0  0  0  0
   19.6800   67.3360   30.2200 C   0  0  0  0  0  0  0  0  0  0  0  0
   18.4870   67.5430   31.1490 C   0  0  0  0  0  0  0  0  0  0  0  0
   18.7350   66.6260   32.3480 C   0  0  0  0  0  0  0  0  0  0  0  0
   20.0100   65.8550   31.9880 C   0  0  2  0  0  0  0  0  0  0  0  0
   19.6660   64.5350   31.3660 C   0  0  0  0  0  0  0  0  0  0  0  0
   19.5950   63.5980   32.3070 C   0  0  1  0  0  0  0  0  0  0  0  0
   20.4270   63.3490   34.6060 O   0  0  0  0  0  0  0  0  0  0  0  0
   20.8520   63.8750   35.2870 H   0  0  0  0  0  0  0  0  0  0  0  0
   19.4420   62.2620   32.0250 O   0  0  0  0  0  0  0  0  0  0  0  0
   20.5540   61.5480   31.5050 C   0  0  0  0  0  0  0  0  0  0  0  0
  1 22  1  1  0  0  0
  2 19  1  6  0  0  0
  2  1  1  0  0  0  0
  3  4  1  0  0  0  0
  3  2  1  0  0  0  0
  5  4  2  0  0  0  0
  6  5  1  0  0  0  0
  7  6  1  0  0  0  0
  8  9  1  0  0  0  0
  8  7  1  0  0  0  0
  9  5  1  0  0  0  0
 10  9  2  0  0  0  0
 10 11  1  0  0  0  0
 11  3  2  0  0  0  0
 12 11  1  0  0  0  0
 13 12  1  0  0  0  0
 14 13  1  0  0  0  0
 14 19  1  1  0  0  0
 15 14  1  0  0  0  0
 16 14  1  0  0  0  0
 16 17  1  0  0  0  0
 17 18  1  0  0  0  0
 19 20  1  6  0  0  0
 19 18  1  0  0  0  0
 20 21  1  0  0  0  0
 21 24  1  6  0  0  0
 21  1  1  0  0  0  0
 22 23  1  0  0  0  0
 25 24  1  0  0  0  0
M  END
>  <minimizedAffinity>
-6.47482347

$$$$

 OpenBabel12271915193D

 25 29  0  0  1  0  0  0  0  0999 V2000
   18.8810   62.7450   33.5480 C   0  0  1  0  0  0  0  0  0  0  0  0
   19.1920   64.1840   33.1110 C   0  0  1  0  0  0  0  0  0  0  0  0
   20.6010   64.5840   32.7520 C   0  0  0  0  0  0  0  0  0  0  0  0
   21.6380   63.6730   32.8310 C   0  0  0  0  0  0  0  0  0  0  0  0
   22.9160   64.0290   32.4820 C   0  0  0  0  0  0  0  0  0  0  0  0
   24.0370   63.2380   32.4890 O   0  0  0  0  0  0  0  0  0  0  0  0
   25.1010   64.1220   32.1110 C   0  0  0  0  0  0  0  0  0  0  0  0
   24.5730   65.4030   31.7410 O   0  0  0  0  0  0  0  0  0  0  0  0
   23.2280   65.2970   32.0450 C   0  0  0  0  0  0  0  0  0  0  0  0
   22.2460   66.2390   31.9510 C   0  0  0  0  0  0  0  0  0  0  0  0
   20.9200   65.9060   32.2930 C   0  0  0  0  0  0  0  0  0  0  0  0
   20.0060   67.0710   32.0800 C   0  0  0  0  0  0  0  0  0  0  0  0
   18.5660   66.6880   31.8020 C   0  0  0  0  0  0  0  0  0  0  0  0
   18.4800   65.4270   31.0140 N   0  0  2  0  0  0  0  0  0  0  0  0
   19.3420   65.3010   30.4600 H   0  0  0  0  0  0  0  0  0  0  0  0
   17.3050   65.4280   30.1020 C   0  0  0  0  0  0  0  0  0  0  0  0
   16.1400   65.0960   31.0310 C   0  0  0  0  0  0  0  0  0  0  0  0
   16.7650   64.3900   32.2370 C   0  0  0  0  0  0  0  0  0  0  0  0
   18.2490   64.2560   31.8800 C   0  0  2  0  0  0  0  0  0  0  0  0
   18.5220   62.9140   31.2690 C   0  0  0  0  0  0  0  0  0  0  0  0
   18.8690   62.0490   32.2160 C   0  0  1  0  0  0  0  0  0  0  0  0
   19.7210   62.2070   34.5160 O   0  0  0  0  0  0  0  0  0  0  0  0
   19.8700   62.8720   35.1920 H   0  0  0  0  0  0  0  0  0  0  0  0
   19.3190   60.7790   31.9450 O   0  0  0  0  0  0  0  0  0  0  0  0
   18.4950   59.6790   32.3040 C   0  0  0  0  0  0  0  0  0  0  0  0
  1 22  1  1  0  0  0
  2 19  1  6  0  0  0
  2  1  1  0  0  0  0
  3  4  1  0  0  0  0
  3  2  1  0  0  0  0
  5  6  1  0  0  0  0
  5  4  2  0  0  0  0
  7  6  1  0  0  0  0
  8  9  1  0  0  0  0
  8  7  1  0  0  0  0
  9  5  1  0  0  0  0
 10  9  2  0  0  0  0
 10 11  1  0  0  0  0
 11  3  2  0  0  0  0
 12 11  1  0  0  0  0
 13 12  1  0  0  0  0
 14 13  1  0  0  0  0
 14 19  1  1  0  0  0
 15 14  1  0  0  0  0
 16 14  1  0  0  0  0
 16 17  1  0  0  0  0
 17 18  1  0  0  0  0
 19 20  1  6  0  0  0
 19 18  1  0  0  0  0
 20 21  1  0  0  0  0
 21 24  1  6  0  0  0
 21  1  1  0  0  0  0
 22 23  1  0  0  0  0
 24 25  1  0  0  0  0
M  END
>  <minimizedAffinity>
-6.44969034

$$$$

 OpenBabel12271915193D

 25 29  0  0  1  0  0  0  0  0999 V2000
   19.8590   63.4490   31.4570 C   0  0  1  0  0  0  0  0  0  0  0  0
   18.6590   64.3630   31.1750 C   0  0  1  0  0  0  0  0  0  0  0  0
   17.2790   63.9780   31.6450 C   0  0  0  0  0  0  0  0  0  0  0  0
   17.0670   62.7880   32.3170 C   0  0  0  0  0  0  0  0  0  0  0  0
   15.8160   62.4470   32.7650 C   0  0  0  0  0  0  0  0  0  0  0  0
   15.4540   61.3190   33.4580 O   0  0  0  0  0  0  0  0  0  0  0  0
   14.0320   61.4320   33.6070 C   0  0  0  0  0  0  0  0  0  0  0  0
   13.5830   62.7060   33.1240 O   0  0  0  0  0  0  0  0  0  0  0  0
   14.7210   63.2600   32.5690 C   0  0  0  0  0  0  0  0  0  0  0  0
   14.8720   64.4450   31.9100 C   0  0  0  0  0  0  0  0  0  0  0  0
   16.1430   64.8310   31.4410 C   0  0  0  0  0  0  0  0  0  0  0  0
   16.0840   66.1740   30.7860 C   0  0  0  0  0  0  0  0  0  0  0  0
   17.3910   66.9410   30.8220 C   0  0  0  0  0  0  0  0  0  0  0  0
   18.1420   66.6790   32.0810 N   0  0  2  0  0  0  0  0  0  0  0  0
   17.4850   66.4080   32.8310 H   0  0  0  0  0  0  0  0  0  0  0  0
   18.9190   67.8700   32.5160 C   0  0  0  0  0  0  0  0  0  0  0  0
   20.1460   67.8390   31.6090 C   0  0  0  0  0  0  0  0  0  0  0  0
   20.2730   66.3870   31.1400 C   0  0  0  0  0  0  0  0  0  0  0  0
   19.1710   65.6380   31.8980 C   0  0  2  0  0  0  0  0  0  0  0  0
   19.7210   65.0210   33.1490 C   0  0  0  0  0  0  0  0  0  0  0  0
   20.1260   63.7800   32.8990 C   0  0  1  0  0  0  0  0  0  0  0  0
   19.6840   62.1030   31.1580 O   0  0  0  0  0  0  0  0  0  0  0  0
   19.2440   62.0360   30.3080 H   0  0  0  0  0  0  0  0  0  0  0  0
   20.5410   62.9140   33.8810 O   0  0  0  0  0  0  0  0  0  0  0  0
   19.7020   62.7210   35.0110 C   0  0  0  0  0  0  0  0  0  0  0  0
  1 22  1  1  0  0  0
  1 21  1  0  0  0  0
  2  1  1  0  0  0  0
  2  3  1  0  0  0  0
  2 19  1  1  0  0  0
  3  4  1  0  0  0  0
  4  5  2  0  0  0  0
  5  6  1  0  0  0  0
  6  7  1  0  0  0  0
  8  7  1  0  0  0  0
  9  5  1  0  0  0  0
  9  8  1  0  0  0  0
 10  9  2  0  0  0  0
 11  3  2  0  0  0  0
 11 10  1  0  0  0  0
 12 13  1  0  0  0  0
 12 11  1  0  0  0  0
 13 14  1  0  0  0  0
 14 19  1  6  0  0  0
 14 16  1  0  0  0  0
 14 15  1  0  0  0  0
 17 16  1  0  0  0  0
 18 17  1  0  0  0  0
 19 18  1  6  0  0  0
 19 20  1  0  0  0  0
 21 20  1  0  0  0  0
 21 24  1  1  0  0  0
 23 22  1  0  0  0  0
 24 25  1  0  0  0  0
M  END
>  <minimizedAffinity>
-6.36513472

$$$$
