
 OpenBabel12271915103D

 24 27  0  0  0  0  0  0  0  0999 V2000
   23.3990   64.0510   33.7690 N   0  0  0  0  0  0  0  0  0  0  0  0
   22.1100   63.7450   33.4140 C   0  0  0  0  0  0  0  0  0  0  0  0
   21.4830   62.6120   33.8870 N   0  0  0  0  0  0  0  0  0  0  0  0
   21.4540   61.4310   33.0010 C   0  0  0  0  0  0  0  0  0  0  0  0
   20.3080   60.4770   33.4050 C   0  0  0  0  0  0  0  0  0  0  0  0
   18.9960   61.1850   33.3360 N   0  0  0  0  0  0  0  0  0  0  0  0
   18.2770   60.6000   33.7740 H   0  0  0  0  0  0  0  0  0  0  0  0
   18.7100   61.3180   32.3490 H   0  0  0  0  0  0  0  0  0  0  0  0
   18.9940   62.5370   33.9960 C   0  0  0  0  0  0  0  0  0  0  0  0
   20.3110   62.8010   34.7480 C   0  0  0  0  0  0  0  0  0  0  0  0
   21.6050   64.6780   32.6490 N   0  0  0  0  0  0  0  0  0  0  0  0
   22.5810   65.6100   32.4550 C   0  0  0  0  0  0  0  0  0  0  0  0
   22.5860   66.7910   31.7110 C   0  0  0  0  0  0  0  0  0  0  0  0
   23.7400   67.5760   31.6840 C   0  0  0  0  0  0  0  0  0  0  0  0
   24.8800   67.1830   32.3820 C   0  0  0  0  0  0  0  0  0  0  0  0
   24.8810   65.9990   33.1100 C   0  0  0  0  0  0  0  0  0  0  0  0
   23.7260   65.2280   33.1490 C   0  0  0  0  0  0  0  0  0  0  0  0
   24.2890   63.2110   34.5350 C   0  0  0  0  0  0  0  0  0  0  0  0
   25.3580   62.5620   33.7110 C   0  0  0  0  0  0  0  0  0  0  0  0
   25.8010   63.1020   32.5100 C   0  0  0  0  0  0  0  0  0  0  0  0
   26.8360   62.5090   31.8010 C   0  0  0  0  0  0  0  0  0  0  0  0
   27.4430   61.3560   32.2670 C   0  0  0  0  0  0  0  0  0  0  0  0
   27.0050   60.8090   33.4570 C   0  0  0  0  0  0  0  0  0  0  0  0
   25.9730   61.3990   34.1690 C   0  0  0  0  0  0  0  0  0  0  0  0
  1 18  1  0  0  0  0
  2  1  1  0  0  0  0
  2  3  1  0  0  0  0
  3 10  1  0  0  0  0
  4  5  1  0  0  0  0
  4  3  1  0  0  0  0
  6  5  1  0  0  0  0
  6  7  1  0  0  0  0
  6  9  1  0  0  0  0
  8  6  1  0  0  0  0
  9 10  1  0  0  0  0
 11  2  2  0  0  0  0
 12 11  2  0  0  0  0
 12 17  1  0  0  0  0
 13 12  1  0  0  0  0
 14 13  1  0  0  0  0
 14 15  2  0  0  0  0
 15 16  1  0  0  0  0
 16 17  2  0  0  0  0
 17  1  1  0  0  0  0
 19 24  1  0  0  0  0
 19 18  1  0  0  0  0
 20 19  2  0  0  0  0
 21 22  2  0  0  0  0
 21 20  1  0  0  0  0
 22 23  1  0  0  0  0
 23 24  2  0  0  0  0
M  END
>  <minimizedAffinity>
-8.86379242

$$$$

 OpenBabel12271915103D

 24 27  0  0  0  0  0  0  0  0999 V2000
   21.8330   64.5350   32.2590 N   0  0  0  0  0  0  0  0  0  0  0  0
   20.5600   64.0940   32.5130 C   0  0  0  0  0  0  0  0  0  0  0  0
   20.2930   62.7620   32.7500 N   0  0  0  0  0  0  0  0  0  0  0  0
   19.7850   61.9590   31.6190 C   0  0  0  0  0  0  0  0  0  0  0  0
   19.0460   60.7040   32.1350 C   0  0  0  0  0  0  0  0  0  0  0  0
   17.9090   61.0980   33.0180 N   0  0  0  0  0  0  0  0  0  0  0  0
   17.5450   60.2620   33.4880 H   0  0  0  0  0  0  0  0  0  0  0  0
   17.1300   61.4820   32.4520 H   0  0  0  0  0  0  0  0  0  0  0  0
   18.2680   62.1260   34.0560 C   0  0  0  0  0  0  0  0  0  0  0  0
   19.7810   62.4040   34.0770 C   0  0  0  0  0  0  0  0  0  0  0  0
   19.7190   65.0950   32.5420 N   0  0  0  0  0  0  0  0  0  0  0  0
   20.4300   66.2250   32.2650 C   0  0  0  0  0  0  0  0  0  0  0  0
   20.0280   67.5570   32.1510 C   0  0  0  0  0  0  0  0  0  0  0  0
   20.9800   68.5350   31.8570 C   0  0  0  0  0  0  0  0  0  0  0  0
   22.3160   68.1880   31.6680 C   0  0  0  0  0  0  0  0  0  0  0  0
   22.7150   66.8600   31.7670 C   0  0  0  0  0  0  0  0  0  0  0  0
   21.7690   65.8910   32.0750 C   0  0  0  0  0  0  0  0  0  0  0  0
   22.9980   63.7000   32.0740 C   0  0  0  0  0  0  0  0  0  0  0  0
   23.6090   63.2310   33.3580 C   0  0  0  0  0  0  0  0  0  0  0  0
   23.5650   61.9020   33.7600 C   0  0  0  0  0  0  0  0  0  0  0  0
   24.1940   61.4900   34.9270 C   0  0  0  0  0  0  0  0  0  0  0  0
   24.8710   62.3960   35.7230 C   0  0  0  0  0  0  0  0  0  0  0  0
   24.9140   63.7200   35.3340 C   0  0  0  0  0  0  0  0  0  0  0  0
   24.2890   64.1360   34.1700 C   0  0  0  0  0  0  0  0  0  0  0  0
  1  2  1  0  0  0  0
  2 11  2  0  0  0  0
  2  3  1  0  0  0  0
  3 10  1  0  0  0  0
  4  5  1  0  0  0  0
  4  3  1  0  0  0  0
  5  6  1  0  0  0  0
  6  7  1  0  0  0  0
  6  9  1  0  0  0  0
  8  6  1  0  0  0  0
  9 10  1  0  0  0  0
 12 11  2  0  0  0  0
 13 12  1  0  0  0  0
 14 13  1  0  0  0  0
 15 16  1  0  0  0  0
 15 14  2  0  0  0  0
 16 17  2  0  0  0  0
 17  1  1  0  0  0  0
 17 12  1  0  0  0  0
 18  1  1  0  0  0  0
 18 19  1  0  0  0  0
 19 20  2  0  0  0  0
 19 24  1  0  0  0  0
 20 21  1  0  0  0  0
 21 22  2  0  0  0  0
 23 22  1  0  0  0  0
 24 23  2  0  0  0  0
M  END
>  <minimizedAffinity>
-8.79406261

$$$$

 OpenBabel12271915103D

 24 27  0  0  0  0  0  0  0  0999 V2000
   20.0960   64.8420   32.7520 N   0  0  0  0  0  0  0  0  0  0  0  0
   19.3360   63.8400   32.2040 C   0  0  0  0  0  0  0  0  0  0  0  0
   19.4590   62.5320   32.6220 N   0  0  0  0  0  0  0  0  0  0  0  0
   20.2960   61.6330   31.8020 C   0  0  0  0  0  0  0  0  0  0  0  0
   19.9170   60.1570   32.0580 C   0  0  0  0  0  0  0  0  0  0  0  0
   18.4770   59.9280   31.7390 N   0  0  0  0  0  0  0  0  0  0  0  0
   18.2020   59.0010   32.0800 H   0  0  0  0  0  0  0  0  0  0  0  0
   18.3330   59.9220   30.7130 H   0  0  0  0  0  0  0  0  0  0  0  0
   17.5490   60.9590   32.3230 C   0  0  0  0  0  0  0  0  0  0  0  0
   18.2930   61.9190   33.2670 C   0  0  0  0  0  0  0  0  0  0  0  0
   18.5000   64.3220   31.3220 N   0  0  0  0  0  0  0  0  0  0  0  0
   18.7250   65.6640   31.2450 C   0  0  0  0  0  0  0  0  0  0  0  0
   18.1320   66.6510   30.4560 C   0  0  0  0  0  0  0  0  0  0  0  0
   18.5580   67.9740   30.5810 C   0  0  0  0  0  0  0  0  0  0  0  0
   19.5720   68.3090   31.4760 C   0  0  0  0  0  0  0  0  0  0  0  0
   20.1740   67.3260   32.2520 C   0  0  0  0  0  0  0  0  0  0  0  0
   19.7370   66.0120   32.1370 C   0  0  0  0  0  0  0  0  0  0  0  0
   21.1760   64.6660   33.6950 C   0  0  0  0  0  0  0  0  0  0  0  0
   22.5130   64.4770   33.0460 C   0  0  0  0  0  0  0  0  0  0  0  0
   23.1020   65.4590   32.2590 C   0  0  0  0  0  0  0  0  0  0  0  0
   24.3690   65.2750   31.7220 C   0  0  0  0  0  0  0  0  0  0  0  0
   25.0700   64.1040   31.9480 C   0  0  0  0  0  0  0  0  0  0  0  0
   24.4900   63.1210   32.7250 C   0  0  0  0  0  0  0  0  0  0  0  0
   23.2260   63.3010   33.2640 C   0  0  0  0  0  0  0  0  0  0  0  0
  1 18  1  0  0  0  0
  2  3  1  0  0  0  0
  2  1  1  0  0  0  0
  3 10  1  0  0  0  0
  4  5  1  0  0  0  0
  4  3  1  0  0  0  0
  6  5  1  0  0  0  0
  6  7  1  0  0  0  0
  6  9  1  0  0  0  0
  8  6  1  0  0  0  0
  9 10  1  0  0  0  0
 11  2  2  0  0  0  0
 12 11  2  0  0  0  0
 12 17  1  0  0  0  0
 13 14  1  0  0  0  0
 13 12  1  0  0  0  0
 14 15  2  0  0  0  0
 15 16  1  0  0  0  0
 17 16  2  0  0  0  0
 17  1  1  0  0  0  0
 19 24  1  0  0  0  0
 19 18  1  0  0  0  0
 20 19  2  0  0  0  0
 21 22  2  0  0  0  0
 21 20  1  0  0  0  0
 22 23  1  0  0  0  0
 23 24  2  0  0  0  0
M  END
>  <minimizedAffinity>
-8.24085331

$$$$

 OpenBabel12271915103D

 24 27  0  0  0  0  0  0  0  0999 V2000
   21.5540   63.3110   33.5180 N   0  0  0  0  0  0  0  0  0  0  0  0
   20.7420   62.2070   33.5170 C   0  0  0  0  0  0  0  0  0  0  0  0
   19.4960   62.2290   32.9270 N   0  0  0  0  0  0  0  0  0  0  0  0
   18.3300   62.4400   33.8100 C   0  0  0  0  0  0  0  0  0  0  0  0
   17.0410   61.9170   33.1380 C   0  0  0  0  0  0  0  0  0  0  0  0
   17.1730   60.4640   32.8220 N   0  0  0  0  0  0  0  0  0  0  0  0
   16.3900   60.1790   32.2240 H   0  0  0  0  0  0  0  0  0  0  0  0
   17.1040   59.9000   33.6890 H   0  0  0  0  0  0  0  0  0  0  0  0
   18.4650   60.1000   32.1430 C   0  0  0  0  0  0  0  0  0  0  0  0
   19.2810   61.3510   31.7730 C   0  0  0  0  0  0  0  0  0  0  0  0
   21.3390   61.1910   34.0830 N   0  0  0  0  0  0  0  0  0  0  0  0
   22.5590   61.6270   34.5070 C   0  0  0  0  0  0  0  0  0  0  0  0
   23.5860   60.9670   35.1860 C   0  0  0  0  0  0  0  0  0  0  0  0
   24.7540   61.6620   35.5010 C   0  0  0  0  0  0  0  0  0  0  0  0
   24.8940   63.0050   35.1560 C   0  0  0  0  0  0  0  0  0  0  0  0
   23.8670   63.6680   34.4940 C   0  0  0  0  0  0  0  0  0  0  0  0
   22.7110   62.9690   34.1660 C   0  0  0  0  0  0  0  0  0  0  0  0
   21.1920   64.6300   33.0530 C   0  0  0  0  0  0  0  0  0  0  0  0
   22.3240   65.3720   32.4120 C   0  0  0  0  0  0  0  0  0  0  0  0
   23.3280   64.7260   31.7010 C   0  0  0  0  0  0  0  0  0  0  0  0
   24.3300   65.4490   31.0690 C   0  0  0  0  0  0  0  0  0  0  0  0
   24.3600   66.8300   31.1420 C   0  0  0  0  0  0  0  0  0  0  0  0
   23.3710   67.4790   31.8530 C   0  0  0  0  0  0  0  0  0  0  0  0
   22.3670   66.7620   32.4840 C   0  0  0  0  0  0  0  0  0  0  0  0
  1 17  1  0  0  0  0
  2  1  1  0  0  0  0
  2 11  2  0  0  0  0
  3  2  1  0  0  0  0
  3  4  1  0  0  0  0
  5  4  1  0  0  0  0
  6  5  1  0  0  0  0
  6  8  1  0  0  0  0
  7  6  1  0  0  0  0
  9  6  1  0  0  0  0
 10  9  1  0  0  0  0
 10  3  1  0  0  0  0
 11 12  2  0  0  0  0
 12 13  1  0  0  0  0
 13 14  1  0  0  0  0
 15 14  2  0  0  0  0
 16 15  1  0  0  0  0
 17 16  2  0  0  0  0
 17 12  1  0  0  0  0
 18  1  1  0  0  0  0
 19 24  1  0  0  0  0
 19 18  1  0  0  0  0
 20 19  2  0  0  0  0
 21 22  2  0  0  0  0
 21 20  1  0  0  0  0
 22 23  1  0  0  0  0
 23 24  2  0  0  0  0
M  END
>  <minimizedAffinity>
-8.19602585

$$$$

 OpenBabel12271915103D

 24 27  0  0  0  0  0  0  0  0999 V2000
   21.4890   64.3030   33.5110 N   0  0  0  0  0  0  0  0  0  0  0  0
   21.1300   65.1730   32.5140 C   0  0  0  0  0  0  0  0  0  0  0  0
   19.8240   65.5850   32.3530 N   0  0  0  0  0  0  0  0  0  0  0  0
   19.0150   64.8960   31.3280 C   0  0  0  0  0  0  0  0  0  0  0  0
   17.8210   65.7770   30.8960 C   0  0  0  0  0  0  0  0  0  0  0  0
   18.3070   67.0810   30.3570 N   0  0  0  0  0  0  0  0  0  0  0  0
   17.5090   67.7150   30.2440 H   0  0  0  0  0  0  0  0  0  0  0  0
   18.7170   66.9500   29.4140 H   0  0  0  0  0  0  0  0  0  0  0  0
   19.3460   67.7510   31.2150 C   0  0  0  0  0  0  0  0  0  0  0  0
   19.5380   67.0100   32.5510 C   0  0  0  0  0  0  0  0  0  0  0  0
   22.1780   65.5560   31.8310 N   0  0  0  0  0  0  0  0  0  0  0  0
   23.2560   64.9030   32.3510 C   0  0  0  0  0  0  0  0  0  0  0  0
   24.6050   64.9270   31.9900 C   0  0  0  0  0  0  0  0  0  0  0  0
   25.5160   64.1500   32.7050 C   0  0  0  0  0  0  0  0  0  0  0  0
   25.0880   63.3490   33.7620 C   0  0  0  0  0  0  0  0  0  0  0  0
   23.7440   63.3130   34.1130 C   0  0  0  0  0  0  0  0  0  0  0  0
   22.8400   64.1000   33.4100 C   0  0  0  0  0  0  0  0  0  0  0  0
   20.5850   63.6170   34.4030 C   0  0  0  0  0  0  0  0  0  0  0  0
   19.9480   62.4050   33.7960 C   0  0  0  0  0  0  0  0  0  0  0  0
   18.5890   62.3410   33.5150 C   0  0  0  0  0  0  0  0  0  0  0  0
   18.0410   61.2250   32.8970 C   0  0  0  0  0  0  0  0  0  0  0  0
   18.8350   60.1450   32.5560 C   0  0  0  0  0  0  0  0  0  0  0  0
   20.1860   60.1970   32.8370 C   0  0  0  0  0  0  0  0  0  0  0  0
   20.7370   61.3100   33.4520 C   0  0  0  0  0  0  0  0  0  0  0  0
  1 18  1  0  0  0  0
  2  1  1  0  0  0  0
  3  2  1  0  0  0  0
  3 10  1  0  0  0  0
  4  3  1  0  0  0  0
  5  4  1  0  0  0  0
  6  5  1  0  0  0  0
  6  9  1  0  0  0  0
  7  6  1  0  0  0  0
  8  6  1  0  0  0  0
  9 10  1  0  0  0  0
 11 12  2  0  0  0  0
 11  2  2  0  0  0  0
 12 17  1  0  0  0  0
 13 12  1  0  0  0  0
 13 14  1  0  0  0  0
 14 15  2  0  0  0  0
 15 16  1  0  0  0  0
 17  1  1  0  0  0  0
 17 16  2  0  0  0  0
 19 18  1  0  0  0  0
 20 19  1  0  0  0  0
 21 20  2  0  0  0  0
 22 23  2  0  0  0  0
 22 21  1  0  0  0  0
 23 24  1  0  0  0  0
 24 19  2  0  0  0  0
M  END
>  <minimizedAffinity>
-8.14362144

$$$$

 OpenBabel12271915103D

 24 27  0  0  0  0  0  0  0  0999 V2000
   20.7670   66.2710   32.0060 N   0  0  0  0  0  0  0  0  0  0  0  0
   20.6280   67.6090   31.7430 C   0  0  0  0  0  0  0  0  0  0  0  0
   19.3850   68.1920   31.6160 N   0  0  0  0  0  0  0  0  0  0  0  0
   18.8700   68.4040   30.2480 C   0  0  0  0  0  0  0  0  0  0  0  0
   17.7850   69.5040   30.2400 C   0  0  0  0  0  0  0  0  0  0  0  0
   18.3410   70.7840   30.7690 N   0  0  0  0  0  0  0  0  0  0  0  0
   17.5720   71.4440   30.9230 H   0  0  0  0  0  0  0  0  0  0  0  0
   18.9690   71.2190   30.0680 H   0  0  0  0  0  0  0  0  0  0  0  0
   19.1200   70.6330   32.0470 C   0  0  0  0  0  0  0  0  0  0  0  0
   19.0110   69.2050   32.6100 C   0  0  0  0  0  0  0  0  0  0  0  0
   21.7950   68.1970   31.6950 N   0  0  0  0  0  0  0  0  0  0  0  0
   22.7390   67.2330   31.8900 C   0  0  0  0  0  0  0  0  0  0  0  0
   24.1330   67.3050   31.9150 C   0  0  0  0  0  0  0  0  0  0  0  0
   24.8730   66.1440   32.1420 C   0  0  0  0  0  0  0  0  0  0  0  0
   24.2320   64.9210   32.3300 C   0  0  0  0  0  0  0  0  0  0  0  0
   22.8450   64.8450   32.2900 C   0  0  0  0  0  0  0  0  0  0  0  0
   22.1090   66.0050   32.0810 C   0  0  0  0  0  0  0  0  0  0  0  0
   19.6990   65.3000   32.0470 C   0  0  0  0  0  0  0  0  0  0  0  0
   20.0910   64.0040   32.6870 C   0  0  0  0  0  0  0  0  0  0  0  0
   20.1890   63.8550   34.0650 C   0  0  0  0  0  0  0  0  0  0  0  0
   20.4960   62.6250   34.6280 C   0  0  0  0  0  0  0  0  0  0  0  0
   20.7250   61.5180   33.8300 C   0  0  0  0  0  0  0  0  0  0  0  0
   20.6370   61.6580   32.4590 C   0  0  0  0  0  0  0  0  0  0  0  0
   20.3290   62.8850   31.8930 C   0  0  0  0  0  0  0  0  0  0  0  0
  1 18  1  0  0  0  0
  1 17  1  0  0  0  0
  2  1  1  0  0  0  0
  3  2  1  0  0  0  0
  3 10  1  0  0  0  0
  4  3  1  0  0  0  0
  5  4  1  0  0  0  0
  5  6  1  0  0  0  0
  6  7  1  0  0  0  0
  6  9  1  0  0  0  0
  8  6  1  0  0  0  0
  9 10  1  0  0  0  0
 11  2  2  0  0  0  0
 11 12  2  0  0  0  0
 12 13  1  0  0  0  0
 12 17  1  0  0  0  0
 13 14  1  0  0  0  0
 14 15  2  0  0  0  0
 16 15  1  0  0  0  0
 17 16  2  0  0  0  0
 18 19  1  0  0  0  0
 19 20  2  0  0  0  0
 20 21  1  0  0  0  0
 22 21  2  0  0  0  0
 23 22  1  0  0  0  0
 24 23  2  0  0  0  0
 24 19  1  0  0  0  0
M  END
>  <minimizedAffinity>
-7.90295649

$$$$

 OpenBabel12271915103D

 24 27  0  0  0  0  0  0  0  0999 V2000
   20.7080   62.1610   32.1550 N   0  0  0  0  0  0  0  0  0  0  0  0
   19.9060   61.2380   32.7750 C   0  0  0  0  0  0  0  0  0  0  0  0
   18.6680   60.9050   32.2700 N   0  0  0  0  0  0  0  0  0  0  0  0
   17.4890   61.5610   32.8730 C   0  0  0  0  0  0  0  0  0  0  0  0
   16.2130   60.7310   32.6090 C   0  0  0  0  0  0  0  0  0  0  0  0
   16.3630   59.3560   33.1720 N   0  0  0  0  0  0  0  0  0  0  0  0
   15.5900   58.7720   32.8360 H   0  0  0  0  0  0  0  0  0  0  0  0
   16.2880   59.3810   34.2050 H   0  0  0  0  0  0  0  0  0  0  0  0
   17.6670   58.6910   32.8250 C   0  0  0  0  0  0  0  0  0  0  0  0
   18.4750   59.5240   31.8150 C   0  0  0  0  0  0  0  0  0  0  0  0
   20.5060   60.7300   33.8200 N   0  0  0  0  0  0  0  0  0  0  0  0
   21.7170   61.3480   33.9290 C   0  0  0  0  0  0  0  0  0  0  0  0
   22.7410   61.2030   34.8670 C   0  0  0  0  0  0  0  0  0  0  0  0
   23.8980   61.9720   34.7390 C   0  0  0  0  0  0  0  0  0  0  0  0
   24.0300   62.8840   33.6950 C   0  0  0  0  0  0  0  0  0  0  0  0
   23.0050   63.0410   32.7690 C   0  0  0  0  0  0  0  0  0  0  0  0
   21.8610   62.2630   32.8890 C   0  0  0  0  0  0  0  0  0  0  0  0
   20.3400   62.9790   31.0230 C   0  0  0  0  0  0  0  0  0  0  0  0
   19.6300   64.2420   31.4020 C   0  0  0  0  0  0  0  0  0  0  0  0
   20.2770   65.2980   32.0320 C   0  0  0  0  0  0  0  0  0  0  0  0
   19.6040   66.4780   32.3160 C   0  0  0  0  0  0  0  0  0  0  0  0
   18.2680   66.6270   31.9880 C   0  0  0  0  0  0  0  0  0  0  0  0
   17.6160   65.5810   31.3670 C   0  0  0  0  0  0  0  0  0  0  0  0
   18.2840   64.4010   31.0810 C   0  0  0  0  0  0  0  0  0  0  0  0
  1  2  1  0  0  0  0
  1 17  1  0  0  0  0
  2 11  2  0  0  0  0
  3  2  1  0  0  0  0
  3  4  1  0  0  0  0
  5  4  1  0  0  0  0
  5  6  1  0  0  0  0
  6  8  1  0  0  0  0
  7  6  1  0  0  0  0
  9  6  1  0  0  0  0
 10  3  1  0  0  0  0
 10  9  1  0  0  0  0
 11 12  2  0  0  0  0
 12 13  1  0  0  0  0
 14 13  1  0  0  0  0
 15 14  2  0  0  0  0
 16 17  2  0  0  0  0
 16 15  1  0  0  0  0
 17 12  1  0  0  0  0
 18 19  1  0  0  0  0
 18  1  1  0  0  0  0
 19 20  2  0  0  0  0
 20 21  1  0  0  0  0
 22 21  2  0  0  0  0
 23 22  1  0  0  0  0
 24 23  2  0  0  0  0
 24 19  1  0  0  0  0
M  END
>  <minimizedAffinity>
-7.77308512

$$$$

 OpenBabel12271915103D

 24 27  0  0  0  0  0  0  0  0999 V2000
   20.9550   65.5050   32.1800 N   0  0  0  0  0  0  0  0  0  0  0  0
   19.7950   66.0940   31.7460 C   0  0  0  0  0  0  0  0  0  0  0  0
   19.7210   67.4490   31.5050 N   0  0  0  0  0  0  0  0  0  0  0  0
   19.1390   68.2970   32.5650 C   0  0  0  0  0  0  0  0  0  0  0  0
   18.6360   69.6330   31.9750 C   0  0  0  0  0  0  0  0  0  0  0  0
   17.6130   69.3810   30.9170 N   0  0  0  0  0  0  0  0  0  0  0  0
   17.4240   70.2580   30.4190 H   0  0  0  0  0  0  0  0  0  0  0  0
   16.7170   69.0860   31.3470 H   0  0  0  0  0  0  0  0  0  0  0  0
   18.0100   68.3270   29.9200 C   0  0  0  0  0  0  0  0  0  0  0  0
   19.4660   67.8750   30.1250 C   0  0  0  0  0  0  0  0  0  0  0  0
   18.8610   65.1970   31.5620 N   0  0  0  0  0  0  0  0  0  0  0  0
   19.3860   63.9900   31.9150 C   0  0  0  0  0  0  0  0  0  0  0  0
   18.8230   62.7120   31.9310 C   0  0  0  0  0  0  0  0  0  0  0  0
   19.6000   61.6290   32.3420 C   0  0  0  0  0  0  0  0  0  0  0  0
   20.9210   61.8160   32.7430 C   0  0  0  0  0  0  0  0  0  0  0  0
   21.4790   63.0890   32.7410 C   0  0  0  0  0  0  0  0  0  0  0  0
   20.7080   64.1650   32.3170 C   0  0  0  0  0  0  0  0  0  0  0  0
   22.1630   66.1970   32.5640 C   0  0  0  0  0  0  0  0  0  0  0  0
   23.3590   65.3010   32.6710 C   0  0  0  0  0  0  0  0  0  0  0  0
   24.0930   64.9060   31.5600 C   0  0  0  0  0  0  0  0  0  0  0  0
   25.2310   64.1240   31.7000 C   0  0  0  0  0  0  0  0  0  0  0  0
   25.6540   63.7080   32.9500 C   0  0  0  0  0  0  0  0  0  0  0  0
   24.9270   64.0910   34.0590 C   0  0  0  0  0  0  0  0  0  0  0  0
   23.7910   64.8730   33.9240 C   0  0  0  0  0  0  0  0  0  0  0  0
  1 17  1  0  0  0  0
  1 18  1  0  0  0  0
  2  1  1  0  0  0  0
  3  2  1  0  0  0  0
  3  4  1  0  0  0  0
  5  4  1  0  0  0  0
  6  8  1  0  0  0  0
  6  5  1  0  0  0  0
  7  6  1  0  0  0  0
  9 10  1  0  0  0  0
  9  6  1  0  0  0  0
 10  3  1  0  0  0  0
 11  2  2  0  0  0  0
 11 12  2  0  0  0  0
 12 13  1  0  0  0  0
 12 17  1  0  0  0  0
 13 14  1  0  0  0  0
 14 15  2  0  0  0  0
 16 15  1  0  0  0  0
 17 16  2  0  0  0  0
 18 19  1  0  0  0  0
 19 24  2  0  0  0  0
 20 21  2  0  0  0  0
 20 19  1  0  0  0  0
 21 22  1  0  0  0  0
 22 23  2  0  0  0  0
 24 23  1  0  0  0  0
M  END
>  <minimizedAffinity>
-7.58141232

$$$$

 OpenBabel12271915103D

 24 27  0  0  0  0  0  0  0  0999 V2000
   20.7930   65.6370   32.2620 N   0  0  0  0  0  0  0  0  0  0  0  0
   21.2140   64.3320   32.2180 C   0  0  0  0  0  0  0  0  0  0  0  0
   20.3270   63.2840   32.3400 N   0  0  0  0  0  0  0  0  0  0  0  0
   20.2010   62.6520   33.6690 C   0  0  0  0  0  0  0  0  0  0  0  0
   19.6260   61.2240   33.5380 C   0  0  0  0  0  0  0  0  0  0  0  0
   20.5050   60.3890   32.6670 N   0  0  0  0  0  0  0  0  0  0  0  0
   20.0220   59.5110   32.4480 H   0  0  0  0  0  0  0  0  0  0  0  0
   21.3720   60.1310   33.1730 H   0  0  0  0  0  0  0  0  0  0  0  0
   20.9100   61.0590   31.3820 C   0  0  0  0  0  0  0  0  0  0  0  0
   20.1720   62.3950   31.1850 C   0  0  0  0  0  0  0  0  0  0  0  0
   22.5020   64.2680   32.0000 N   0  0  0  0  0  0  0  0  0  0  0  0
   22.9630   65.5490   31.9340 C   0  0  0  0  0  0  0  0  0  0  0  0
   24.2510   66.0520   31.7410 C   0  0  0  0  0  0  0  0  0  0  0  0
   24.4480   67.4330   31.7130 C   0  0  0  0  0  0  0  0  0  0  0  0
   23.3750   68.3050   31.8860 C   0  0  0  0  0  0  0  0  0  0  0  0
   22.0940   67.8060   32.0940 C   0  0  0  0  0  0  0  0  0  0  0  0
   21.8980   66.4300   32.1060 C   0  0  0  0  0  0  0  0  0  0  0  0
   19.4540   66.0840   32.5670 C   0  0  0  0  0  0  0  0  0  0  0  0
   19.0260   67.2800   31.7720 C   0  0  0  0  0  0  0  0  0  0  0  0
   18.7700   68.5110   32.3610 C   0  0  0  0  0  0  0  0  0  0  0  0
   18.4340   69.6140   31.5890 C   0  0  0  0  0  0  0  0  0  0  0  0
   18.3350   69.5100   30.2130 C   0  0  0  0  0  0  0  0  0  0  0  0
   18.5810   68.2880   29.6190 C   0  0  0  0  0  0  0  0  0  0  0  0
   18.9180   67.1850   30.3870 C   0  0  0  0  0  0  0  0  0  0  0  0
  1 18  1  0  0  0  0
  2  1  1  0  0  0  0
  2  3  1  0  0  0  0
  3  4  1  0  0  0  0
  5  4  1  0  0  0  0
  6  8  1  0  0  0  0
  6  5  1  0  0  0  0
  7  6  1  0  0  0  0
  9  6  1  0  0  0  0
 10  9  1  0  0  0  0
 10  3  1  0  0  0  0
 11  2  2  0  0  0  0
 12 11  2  0  0  0  0
 12 17  1  0  0  0  0
 13 12  1  0  0  0  0
 14 13  1  0  0  0  0
 14 15  2  0  0  0  0
 15 16  1  0  0  0  0
 16 17  2  0  0  0  0
 17  1  1  0  0  0  0
 19 20  1  0  0  0  0
 19 18  1  0  0  0  0
 21 20  2  0  0  0  0
 22 21  1  0  0  0  0
 23 22  2  0  0  0  0
 23 24  1  0  0  0  0
 24 19  2  0  0  0  0
M  END
>  <minimizedAffinity>
-7.41573334

$$$$
