MODEL 1
REMARK minimizedAffinity 0
REMARK minimizedRMSD -1
REMARK  Name = 2wel
REMARK  6 active torsions:
REMARK  status: ('A' for Active; 'I' for Inactive)
REMARK    1  A    between atoms: C_1  and  N_20
REMARK    2  A    between atoms: C_2  and  N_20
REMARK    3  A    between atoms: C_3  and  S_26
REMARK    4  A    between atoms: C_9  and  C_11
REMARK    5  A    between atoms: C_11  and  C_12
REMARK    6  A    between atoms: N_20  and  S_26
REMARK                            x       y       z     vdW  Elec       q    Type
REMARK                         _______ _______ _______ _____ _____    ______ ____
ROOT
ATOM      1  C   UNL     1      15.529 -10.806   0.743  0.00  0.00    +0.122 A 
ATOM      2  C   UNL     1      16.093 -11.337   1.913  0.00  0.00    +0.021 A 
ATOM      3  C   UNL     1      17.088 -10.641   2.612  0.00  0.00    +0.018 A 
ATOM      4  C   UNL     1      17.509  -9.406   2.137  0.00  0.00    +0.074 A 
ATOM      5  N   UNL     1      18.404  -8.530   2.610  0.00  0.00    -0.176 NA
ATOM      6  C   UNL     1      18.430  -7.459   1.800  0.00  0.00    +0.265 C 
ATOM      7  O   UNL     1      19.174  -6.499   1.978  0.00  0.00    -0.268 OA
ATOM      8  C   UNL     1      17.524  -7.648   0.736  0.00  0.00    +0.032 C 
ATOM      9  C   UNL     1      16.936  -8.881   0.957  0.00  0.00    +0.017 A 
ATOM     10  C   UNL     1      15.949  -9.574   0.262  0.00  0.00    +0.021 A 
ENDROOT
BRANCH   1  11
ATOM     11  S   UNL     1      14.273 -11.732  -0.162  0.00  0.00    +0.062 S 
ATOM     12  O   UNL     1      13.085 -10.882  -0.413  0.00  0.00    -0.153 OA
ATOM     13  O   UNL     1      13.990 -12.898   0.709  0.00  0.00    -0.153 OA
BRANCH  11  15
ATOM     14  C   UNL     1      13.983 -12.922  -2.500  0.00  0.00    +0.131 C 
ATOM     15  N   UNL     1      14.950 -12.194  -1.670  0.00  0.00    -0.183 NA
ATOM     16  C   UNL     1      16.153 -13.036  -1.468  0.00  0.00    +0.131 C 
ENDBRANCH  11  15
ENDBRANCH   1  11
BRANCH   8  17
ATOM     17  C   UNL     1      17.199  -6.851  -0.360  0.00  0.00    +0.097 C 
BRANCH  17  18
ATOM     18  C   UNL     1      17.579  -7.118  -1.677  0.00  0.00    +0.054 A 
ATOM     19  N   UNL     1      16.856  -7.061  -2.812  0.00  0.00    -0.255 NA
ATOM     20  C   UNL     1      17.641  -7.447  -3.830  0.00  0.00    +0.045 A 
ATOM     21  C   UNL     1      17.252  -7.553  -5.307  0.00  0.00    +0.056 C 
ATOM     22  C   UNL     1      18.202  -8.545  -6.016  0.00  0.00    +0.006 C 
ATOM     23  C   UNL     1      19.701  -8.432  -5.645  0.00  0.00    +0.005 C 
ATOM     24  C   UNL     1      20.083  -8.217  -4.159  0.00  0.00    +0.037 C 
ATOM     25  C   UNL     1      18.897  -7.730  -3.311  0.00  0.00    -0.017 A 
ATOM     26  C   UNL     1      18.837  -7.531  -1.971  0.00  0.00    +0.011 A 
ENDBRANCH  17  18
ENDBRANCH   8  17
TORSDOF 4
ENDMDL
MODEL 2
REMARK minimizedAffinity 0.00203030743
REMARK minimizedRMSD -1
REMARK  Name = 2wel
REMARK  6 active torsions:
REMARK  status: ('A' for Active; 'I' for Inactive)
REMARK    1  A    between atoms: C_1  and  N_20
REMARK    2  A    between atoms: C_2  and  N_20
REMARK    3  A    between atoms: C_3  and  S_26
REMARK    4  A    between atoms: C_9  and  C_11
REMARK    5  A    between atoms: C_11  and  C_12
REMARK    6  A    between atoms: N_20  and  S_26
REMARK                            x       y       z     vdW  Elec       q    Type
REMARK                         _______ _______ _______ _____ _____    ______ ____
ROOT
ATOM      1  C   UNL     1      23.183  -9.369   2.052  0.00  0.00    +0.122 A 
ATOM      2  C   UNL     1      23.451  -8.759   3.287  0.00  0.00    +0.021 A 
ATOM      3  C   UNL     1      24.113  -9.457   4.306  0.00  0.00    +0.018 A 
ATOM      4  C   UNL     1      24.513 -10.767   4.076  0.00  0.00    +0.074 A 
ATOM      5  N   UNL     1      25.174 -11.642   4.845  0.00  0.00    -0.176 NA
ATOM      6  C   UNL     1      25.349 -12.780   4.153  0.00  0.00    +0.265 C 
ATOM      7  O   UNL     1      25.910 -13.769   4.615  0.00  0.00    -0.268 OA
ATOM      8  C   UNL     1      24.760 -12.653   2.877  0.00  0.00    +0.032 C 
ATOM      9  C   UNL     1      24.237 -11.372   2.830  0.00  0.00    +0.017 A 
ATOM     10  C   UNL     1      23.577 -10.679   1.820  0.00  0.00    +0.021 A 
ENDROOT
BRANCH   1  11
ATOM     11  S   UNL     1      22.300  -8.465   0.765  0.00  0.00    +0.062 S 
ATOM     12  O   UNL     1      23.094  -8.437  -0.485  0.00  0.00    -0.153 OA
ATOM     13  O   UNL     1      22.083  -7.122   1.355  0.00  0.00    -0.153 OA
BRANCH  11  15
ATOM     14  C   UNL     1      20.070  -8.675  -0.632  0.00  0.00    +0.131 C 
ATOM     15  N   UNL     1      20.826  -9.290   0.466  0.00  0.00    -0.183 NA
ATOM     16  C   UNL     1      19.983  -9.317   1.684  0.00  0.00    +0.131 C 
ENDBRANCH  11  15
ENDBRANCH   1  11
BRANCH   8  17
ATOM     17  C   UNL     1      24.655 -13.543   1.810  0.00  0.00    +0.097 C 
BRANCH  17  18
ATOM     18  C   UNL     1      23.495 -14.240   1.468  0.00  0.00    +0.054 A 
ATOM     19  N   UNL     1      22.968 -14.497   0.255  0.00  0.00    -0.255 NA
ATOM     20  C   UNL     1      21.817 -15.166   0.430  0.00  0.00    +0.045 A 
ATOM     21  C   UNL     1      20.864 -15.661  -0.660  0.00  0.00    +0.056 C 
ATOM     22  C   UNL     1      19.450 -15.841  -0.060  0.00  0.00    +0.006 C 
ATOM     23  C   UNL     1      19.387 -16.495   1.342  0.00  0.00    +0.005 C 
ATOM     24  C   UNL     1      20.426 -16.065   2.409  0.00  0.00    +0.037 C 
ATOM     25  C   UNL     1      21.638 -15.348   1.794  0.00  0.00    -0.017 A 
ATOM     26  C   UNL     1      22.684 -14.757   2.424  0.00  0.00    +0.011 A 
ENDBRANCH  17  18
ENDBRANCH   8  17
TORSDOF 4
ENDMDL
MODEL 3
REMARK minimizedAffinity 0.00241130241
REMARK minimizedRMSD -1
REMARK  Name = 2wel
REMARK  6 active torsions:
REMARK  status: ('A' for Active; 'I' for Inactive)
REMARK    1  A    between atoms: C_1  and  N_20
REMARK    2  A    between atoms: C_2  and  N_20
REMARK    3  A    between atoms: C_3  and  S_26
REMARK    4  A    between atoms: C_9  and  C_11
REMARK    5  A    between atoms: C_11  and  C_12
REMARK    6  A    between atoms: N_20  and  S_26
REMARK                            x       y       z     vdW  Elec       q    Type
REMARK                         _______ _______ _______ _____ _____    ______ ____
ROOT
ATOM      1  C   UNL     1      20.123 -14.476  -3.909  0.00  0.00    +0.122 A 
ATOM      2  C   UNL     1      20.638 -15.469  -3.062  0.00  0.00    +0.021 A 
ATOM      3  C   UNL     1      20.557 -15.341  -1.669  0.00  0.00    +0.018 A 
ATOM      4  C   UNL     1      19.949 -14.215  -1.130  0.00  0.00    +0.074 A 
ATOM      5  N   UNL     1      19.713 -13.853   0.138  0.00  0.00    -0.176 NA
ATOM      6  C   UNL     1      19.062 -12.678   0.138  0.00  0.00    +0.265 C 
ATOM      7  O   UNL     1      18.731 -12.093   1.165  0.00  0.00    -0.268 OA
ATOM      8  C   UNL     1      18.878 -12.239  -1.189  0.00  0.00    +0.032 C 
ATOM      9  C   UNL     1      19.435 -13.220  -1.991  0.00  0.00    +0.017 A 
ATOM     10  C   UNL     1      19.519 -13.347  -3.375  0.00  0.00    +0.021 A 
ENDROOT
BRANCH   1  11
ATOM     11  S   UNL     1      20.268 -14.644  -5.699  0.00  0.00    +0.062 S 
ATOM     12  O   UNL     1      18.941 -14.488  -6.341  0.00  0.00    -0.153 OA
ATOM     13  O   UNL     1      20.857 -15.992  -5.886  0.00  0.00    -0.153 OA
BRANCH  11  15
ATOM     14  C   UNL     1      21.438 -13.414  -7.720  0.00  0.00    +0.131 C 
ATOM     15  N   UNL     1      21.303 -13.396  -6.259  0.00  0.00    -0.183 NA
ATOM     16  C   UNL     1      22.646 -13.514  -5.643  0.00  0.00    +0.131 C 
ENDBRANCH  11  15
ENDBRANCH   1  11
BRANCH   8  17
ATOM     17  C   UNL     1      18.286 -11.091  -1.715  0.00  0.00    +0.097 C 
BRANCH  17  18
ATOM     18  C   UNL     1      18.988 -10.003  -2.237  0.00  0.00    +0.054 A 
ATOM     19  N   UNL     1      18.737  -9.260  -3.332  0.00  0.00    -0.255 NA
ATOM     20  C   UNL     1      19.715  -8.349  -3.454  0.00  0.00    +0.045 A 
ATOM     21  C   UNL     1      19.861  -7.293  -4.553  0.00  0.00    +0.056 C 
ATOM     22  C   UNL     1      21.343  -6.867  -4.660  0.00  0.00    +0.006 C 
ATOM     23  C   UNL     1      22.086  -6.656  -3.319  0.00  0.00    +0.005 C 
ATOM     24  C   UNL     1      21.850  -7.671  -2.173  0.00  0.00    +0.037 C 
ATOM     25  C   UNL     1      20.587  -8.519  -2.388  0.00  0.00    -0.017 A 
ATOM     26  C   UNL     1      20.126  -9.558  -1.648  0.00  0.00    +0.011 A 
ENDBRANCH  17  18
ENDBRANCH   8  17
TORSDOF 4
ENDMDL
MODEL 4
REMARK minimizedAffinity 0.00261302083
REMARK minimizedRMSD -1
REMARK  Name = 2wel
REMARK  6 active torsions:
REMARK  status: ('A' for Active; 'I' for Inactive)
REMARK    1  A    between atoms: C_1  and  N_20
REMARK    2  A    between atoms: C_2  and  N_20
REMARK    3  A    between atoms: C_3  and  S_26
REMARK    4  A    between atoms: C_9  and  C_11
REMARK    5  A    between atoms: C_11  and  C_12
REMARK    6  A    between atoms: N_20  and  S_26
REMARK                            x       y       z     vdW  Elec       q    Type
REMARK                         _______ _______ _______ _____ _____    ______ ____
ROOT
ATOM      1  C   UNL     1      14.146  -7.121  -9.452  0.00  0.00    +0.122 A 
ATOM      2  C   UNL     1      14.522  -6.414 -10.604  0.00  0.00    +0.021 A 
ATOM      3  C   UNL     1      15.793  -6.582 -11.170  0.00  0.00    +0.018 A 
ATOM      4  C   UNL     1      16.682  -7.469 -10.579  0.00  0.00    +0.074 A 
ATOM      5  N   UNL     1      17.924  -7.839 -10.916  0.00  0.00    -0.176 NA
ATOM      6  C   UNL     1      18.356  -8.758 -10.036  0.00  0.00    +0.265 C 
ATOM      7  O   UNL     1      19.472  -9.266 -10.087  0.00  0.00    -0.268 OA
ATOM      8  C   UNL     1      17.358  -8.989  -9.066  0.00  0.00    +0.032 C 
ATOM      9  C   UNL     1      16.295  -8.176  -9.418  0.00  0.00    +0.017 A 
ATOM     10  C   UNL     1      15.034  -8.006  -8.855  0.00  0.00    +0.021 A 
ENDROOT
BRANCH   1  11
ATOM     11  S   UNL     1      12.519  -6.866  -8.718  0.00  0.00    +0.062 S 
ATOM     12  O   UNL     1      11.813  -8.160  -8.562  0.00  0.00    -0.153 OA
ATOM     13  O   UNL     1      11.844  -5.936  -9.657  0.00  0.00    -0.153 OA
BRANCH  11  15
ATOM     14  C   UNL     1      11.472  -5.946  -6.476  0.00  0.00    +0.131 C 
ATOM     15  N   UNL     1      12.748  -6.171  -7.166  0.00  0.00    -0.183 NA
ATOM     16  C   UNL     1      13.480  -4.887  -7.270  0.00  0.00    +0.131 C 
ENDBRANCH  11  15
ENDBRANCH   1  11
BRANCH   8  17
ATOM     17  C   UNL     1      17.323  -9.823  -7.949  0.00  0.00    +0.097 C 
BRANCH  17  18
ATOM     18  C   UNL     1      17.463  -9.389  -6.630  0.00  0.00    +0.054 A 
ATOM     19  N   UNL     1      16.800  -9.771  -5.521  0.00  0.00    -0.255 NA
ATOM     20  C   UNL     1      17.253  -9.041  -4.489  0.00  0.00    +0.045 A 
ATOM     21  C   UNL     1      16.788  -9.116  -3.032  0.00  0.00    +0.056 C 
ATOM     22  C   UNL     1      17.109  -7.780  -2.324  0.00  0.00    +0.006 C 
ATOM     23  C   UNL     1      18.495  -7.164  -2.635  0.00  0.00    +0.005 C 
ATOM     24  C   UNL     1      19.006  -7.188  -4.097  0.00  0.00    +0.037 C 
ATOM     25  C   UNL     1      18.243  -8.197  -4.970  0.00  0.00    -0.017 A 
ATOM     26  C   UNL     1      18.353  -8.418  -6.304  0.00  0.00    +0.011 A 
ENDBRANCH  17  18
ENDBRANCH   8  17
TORSDOF 4
ENDMDL
MODEL 5
REMARK minimizedAffinity 0.00267176237
REMARK minimizedRMSD -1
REMARK  Name = 2wel
REMARK  6 active torsions:
REMARK  status: ('A' for Active; 'I' for Inactive)
REMARK    1  A    between atoms: C_1  and  N_20
REMARK    2  A    between atoms: C_2  and  N_20
REMARK    3  A    between atoms: C_3  and  S_26
REMARK    4  A    between atoms: C_9  and  C_11
REMARK    5  A    between atoms: C_11  and  C_12
REMARK    6  A    between atoms: N_20  and  S_26
REMARK                            x       y       z     vdW  Elec       q    Type
REMARK                         _______ _______ _______ _____ _____    ______ ____
ROOT
ATOM      1  C   UNL     1      14.230 -11.357   0.358  0.00  0.00    +0.122 A 
ATOM      2  C   UNL     1      14.963 -11.358  -0.839  0.00  0.00    +0.021 A 
ATOM      3  C   UNL     1      16.230 -10.763  -0.908  0.00  0.00    +0.018 A 
ATOM      4  C   UNL     1      16.761 -10.175   0.232  0.00  0.00    +0.074 A 
ATOM      5  N   UNL     1      17.936  -9.572   0.455  0.00  0.00    -0.176 NA
ATOM      6  C   UNL     1      17.991  -9.194   1.743  0.00  0.00    +0.265 C 
ATOM      7  O   UNL     1      18.947  -8.598   2.229  0.00  0.00    -0.268 OA
ATOM      8  C   UNL     1      16.789  -9.548   2.391  0.00  0.00    +0.032 C 
ATOM      9  C   UNL     1      16.015 -10.177   1.431  0.00  0.00    +0.017 A 
ATOM     10  C   UNL     1      14.756 -10.765   1.498  0.00  0.00    +0.021 A 
ENDROOT
BRANCH   1  11
ATOM     11  S   UNL     1      12.587 -12.097   0.417  0.00  0.00    +0.062 S 
ATOM     12  O   UNL     1      12.502 -13.080   1.523  0.00  0.00    -0.153 OA
ATOM     13  O   UNL     1      12.418 -12.705  -0.925  0.00  0.00    -0.153 OA
BRANCH  11  15
ATOM     14  C   UNL     1      10.083 -11.349   0.790  0.00  0.00    +0.131 C 
ATOM     15  N   UNL     1      11.457 -10.839   0.709  0.00  0.00    -0.183 NA
ATOM     16  C   UNL     1      11.534  -9.809  -0.353  0.00  0.00    +0.131 C 
ENDBRANCH  11  15
ENDBRANCH   1  11
BRANCH   8  17
ATOM     17  C   UNL     1      16.350  -9.363   3.701  0.00  0.00    +0.097 C 
BRANCH  17  18
ATOM     18  C   UNL     1      15.418  -8.403   4.098  0.00  0.00    +0.054 A 
ATOM     19  N   UNL     1      14.417  -8.491   4.994  0.00  0.00    -0.255 NA
ATOM     20  C   UNL     1      13.760  -7.320   5.007  0.00  0.00    +0.045 A 
ATOM     21  C   UNL     1      12.542  -6.955   5.860  0.00  0.00    +0.056 C 
ATOM     22  C   UNL     1      11.771  -5.799   5.182  0.00  0.00    +0.006 C 
ATOM     23  C   UNL     1      12.638  -4.661   4.591  0.00  0.00    +0.005 C 
ATOM     24  C   UNL     1      13.928  -5.035   3.819  0.00  0.00    +0.037 C 
ATOM     25  C   UNL     1      14.388  -6.473   4.105  0.00  0.00    -0.017 A 
ATOM     26  C   UNL     1      15.410  -7.166   3.542  0.00  0.00    +0.011 A 
ENDBRANCH  17  18
ENDBRANCH   8  17
TORSDOF 4
ENDMDL
MODEL 6
REMARK minimizedAffinity 0.00279408786
REMARK minimizedRMSD -1
REMARK  Name = 2wel
REMARK  6 active torsions:
REMARK  status: ('A' for Active; 'I' for Inactive)
REMARK    1  A    between atoms: C_1  and  N_20
REMARK    2  A    between atoms: C_2  and  N_20
REMARK    3  A    between atoms: C_3  and  S_26
REMARK    4  A    between atoms: C_9  and  C_11
REMARK    5  A    between atoms: C_11  and  C_12
REMARK    6  A    between atoms: N_20  and  S_26
REMARK                            x       y       z     vdW  Elec       q    Type
REMARK                         _______ _______ _______ _____ _____    ______ ____
ROOT
ATOM      1  C   UNL     1      20.964 -11.120  -8.292  0.00  0.00    +0.122 A 
ATOM      2  C   UNL     1      21.210 -11.723  -9.535  0.00  0.00    +0.021 A 
ATOM      3  C   UNL     1      20.489 -12.853  -9.943  0.00  0.00    +0.018 A 
ATOM      4  C   UNL     1      19.513 -13.369  -9.101  0.00  0.00    +0.074 A 
ATOM      5  N   UNL     1      18.670 -14.400  -9.245  0.00  0.00    -0.176 NA
ATOM      6  C   UNL     1      17.890 -14.477  -8.155  0.00  0.00    +0.265 C 
ATOM      7  O   UNL     1      17.033 -15.341  -8.000  0.00  0.00    -0.268 OA
ATOM      8  C   UNL     1      18.249 -13.461  -7.244  0.00  0.00    +0.032 C 
ATOM      9  C   UNL     1      19.273 -12.756  -7.851  0.00  0.00    +0.017 A 
ATOM     10  C   UNL     1      19.993 -11.636  -7.446  0.00  0.00    +0.021 A 
ENDROOT
BRANCH   1  11
ATOM     11  S   UNL     1      21.928  -9.687  -7.770  0.00  0.00    +0.062 S 
ATOM     12  O   UNL     1      21.030  -8.583  -7.358  0.00  0.00    -0.153 OA
ATOM     13  O   UNL     1      22.756  -9.360  -8.956  0.00  0.00    -0.153 OA
BRANCH  11  15
ATOM     14  C   UNL     1      23.691  -9.048  -5.913  0.00  0.00    +0.131 C 
ATOM     15  N   UNL     1      22.878 -10.160  -6.422  0.00  0.00    -0.183 NA
ATOM     16  C   UNL     1      23.766 -11.291  -6.778  0.00  0.00    +0.131 C 
ENDBRANCH  11  15
ENDBRANCH   1  11
BRANCH   8  17
ATOM     17  C   UNL     1      17.762 -13.132  -5.980  0.00  0.00    +0.097 C 
BRANCH  17  18
ATOM     18  C   UNL     1      18.423 -13.401  -4.780  0.00  0.00    +0.054 A 
ATOM     19  N   UNL     1      18.576 -12.630  -3.687  0.00  0.00    -0.255 NA
ATOM     20  C   UNL     1      19.325 -13.302  -2.799  0.00  0.00    +0.045 A 
ATOM     21  C   UNL     1      19.771 -12.822  -1.416  0.00  0.00    +0.056 C 
ATOM     22  C   UNL     1      21.036 -13.599  -0.987  0.00  0.00    +0.006 C 
ATOM     23  C   UNL     1      21.032 -15.118  -1.284  0.00  0.00    +0.005 C 
ATOM     24  C   UNL     1      20.479 -15.606  -2.646  0.00  0.00    +0.037 C 
ATOM     25  C   UNL     1      19.625 -14.540  -3.351  0.00  0.00    -0.017 A 
ATOM     26  C   UNL     1      19.066 -14.580  -4.586  0.00  0.00    +0.011 A 
ENDBRANCH  17  18
ENDBRANCH   8  17
TORSDOF 4
ENDMDL
MODEL 7
REMARK minimizedAffinity 0.0028117178
REMARK minimizedRMSD -1
REMARK  Name = 2wel
REMARK  6 active torsions:
REMARK  status: ('A' for Active; 'I' for Inactive)
REMARK    1  A    between atoms: C_1  and  N_20
REMARK    2  A    between atoms: C_2  and  N_20
REMARK    3  A    between atoms: C_3  and  S_26
REMARK    4  A    between atoms: C_9  and  C_11
REMARK    5  A    between atoms: C_11  and  C_12
REMARK    6  A    between atoms: N_20  and  S_26
REMARK                            x       y       z     vdW  Elec       q    Type
REMARK                         _______ _______ _______ _____ _____    ______ ____
ROOT
ATOM      1  C   UNL     1      21.205 -10.508  -5.230  0.00  0.00    +0.122 A 
ATOM      2  C   UNL     1      20.093 -10.455  -6.084  0.00  0.00    +0.021 A 
ATOM      3  C   UNL     1      20.118  -9.682  -7.252  0.00  0.00    +0.018 A 
ATOM      4  C   UNL     1      21.268  -8.969  -7.564  0.00  0.00    +0.074 A 
ATOM      5  N   UNL     1      21.574  -8.188  -8.608  0.00  0.00    -0.176 NA
ATOM      6  C   UNL     1      22.835  -7.747  -8.464  0.00  0.00    +0.265 C 
ATOM      7  O   UNL     1      23.380  -6.994  -9.265  0.00  0.00    -0.268 OA
ATOM      8  C   UNL     1      23.376  -8.247  -7.261  0.00  0.00    +0.032 C 
ATOM      9  C   UNL     1      22.382  -9.028  -6.697  0.00  0.00    +0.017 A 
ATOM     10  C   UNL     1      22.354  -9.794  -5.535  0.00  0.00    +0.021 A 
ENDROOT
BRANCH   1  11
ATOM     11  S   UNL     1      21.140 -11.482  -3.713  0.00  0.00    +0.062 S 
ATOM     12  O   UNL     1      22.286 -12.420  -3.652  0.00  0.00    -0.153 OA
ATOM     13  O   UNL     1      19.824 -12.163  -3.780  0.00  0.00    -0.153 OA
BRANCH  11  15
ATOM     14  C   UNL     1      21.179 -11.097  -1.102  0.00  0.00    +0.131 C 
ATOM     15  N   UNL     1      21.244 -10.395  -2.390  0.00  0.00    -0.183 NA
ATOM     16  C   UNL     1      20.160  -9.387  -2.452  0.00  0.00    +0.131 C 
ENDBRANCH  11  15
ENDBRANCH   1  11
BRANCH   8  17
ATOM     17  C   UNL     1      24.619  -8.069  -6.657  0.00  0.00    +0.097 C 
BRANCH  17  18
ATOM     18  C   UNL     1      24.857  -7.247  -5.554  0.00  0.00    +0.054 A 
ATOM     19  N   UNL     1      25.636  -7.453  -4.475  0.00  0.00    -0.255 NA
ATOM     20  C   UNL     1      25.512  -6.395  -3.659  0.00  0.00    +0.045 A 
ATOM     21  C   UNL     1      26.200  -6.187  -2.307  0.00  0.00    +0.056 C 
ATOM     22  C   UNL     1      25.379  -5.184  -1.464  0.00  0.00    +0.006 C 
ATOM     23  C   UNL     1      24.833  -3.950  -2.222  0.00  0.00    +0.005 C 
ATOM     24  C   UNL     1      24.235  -4.152  -3.637  0.00  0.00    +0.037 C 
ATOM     25  C   UNL     1      24.646  -5.494  -4.262  0.00  0.00    -0.017 A 
ATOM     26  C   UNL     1      24.240  -6.045  -5.434  0.00  0.00    +0.011 A 
ENDBRANCH  17  18
ENDBRANCH   8  17
TORSDOF 4
ENDMDL
MODEL 8
REMARK minimizedAffinity 0.00295863417
REMARK minimizedRMSD -1
REMARK  Name = 2wel
REMARK  6 active torsions:
REMARK  status: ('A' for Active; 'I' for Inactive)
REMARK    1  A    between atoms: C_1  and  N_20
REMARK    2  A    between atoms: C_2  and  N_20
REMARK    3  A    between atoms: C_3  and  S_26
REMARK    4  A    between atoms: C_9  and  C_11
REMARK    5  A    between atoms: C_11  and  C_12
REMARK    6  A    between atoms: N_20  and  S_26
REMARK                            x       y       z     vdW  Elec       q    Type
REMARK                         _______ _______ _______ _____ _____    ______ ____
ROOT
ATOM      1  C   UNL     1      32.777 -12.398   0.384  0.00  0.00    +0.122 A 
ATOM      2  C   UNL     1      33.020 -11.246  -0.380  0.00  0.00    +0.021 A 
ATOM      3  C   UNL     1      32.013 -10.686  -1.178  0.00  0.00    +0.018 A 
ATOM      4  C   UNL     1      30.760 -11.283  -1.200  0.00  0.00    +0.074 A 
ATOM      5  N   UNL     1      29.629 -10.953  -1.837  0.00  0.00    -0.176 NA
ATOM      6  C   UNL     1      28.673 -11.836  -1.507  0.00  0.00    +0.265 C 
ATOM      7  O   UNL     1      27.532 -11.792  -1.957  0.00  0.00    -0.268 OA
ATOM      8  C   UNL     1      29.204 -12.802  -0.627  0.00  0.00    +0.032 C 
ATOM      9  C   UNL     1      30.526 -12.444  -0.429  0.00  0.00    +0.017 A 
ATOM     10  C   UNL     1      31.528 -13.001   0.361  0.00  0.00    +0.021 A 
ENDROOT
BRANCH   1  11
ATOM     11  S   UNL     1      34.096 -13.123   1.378  0.00  0.00    +0.062 S 
ATOM     12  O   UNL     1      33.673 -13.236   2.794  0.00  0.00    -0.153 OA
ATOM     13  O   UNL     1      35.243 -12.205   1.177  0.00  0.00    -0.153 OA
BRANCH  11  15
ATOM     14  C   UNL     1      35.448 -15.384   1.539  0.00  0.00    +0.131 C 
ATOM     15  N   UNL     1      34.406 -14.697   0.768  0.00  0.00    -0.183 NA
ATOM     16  C   UNL     1      34.811 -14.636  -0.656  0.00  0.00    +0.131 C 
ENDBRANCH  11  15
ENDBRANCH   1  11
BRANCH   8  17
ATOM     17  C   UNL     1      28.634 -13.921  -0.021  0.00  0.00    +0.097 C 
BRANCH  17  18
ATOM     18  C   UNL     1      28.851 -15.240  -0.425  0.00  0.00    +0.054 A 
ATOM     19  N   UNL     1      29.019 -16.352   0.315  0.00  0.00    -0.255 NA
ATOM     20  C   UNL     1      29.239 -17.382  -0.518  0.00  0.00    +0.045 A 
ATOM     21  C   UNL     1      29.496 -18.841  -0.133  0.00  0.00    +0.056 C 
ATOM     22  C   UNL     1      30.249 -19.548  -1.283  0.00  0.00    +0.006 C 
ATOM     23  C   UNL     1      29.754 -19.229  -2.714  0.00  0.00    +0.005 C 
ATOM     24  C   UNL     1      29.394 -17.764  -3.065  0.00  0.00    +0.037 C 
ATOM     25  C   UNL     1      29.182 -16.895  -1.816  0.00  0.00    -0.017 A 
ATOM     26  C   UNL     1      28.951 -15.560  -1.739  0.00  0.00    +0.011 A 
ENDBRANCH  17  18
ENDBRANCH   8  17
TORSDOF 4
ENDMDL
MODEL 9
REMARK minimizedAffinity 0.00299617951
REMARK minimizedRMSD -1
REMARK  Name = 2wel
REMARK  6 active torsions:
REMARK  status: ('A' for Active; 'I' for Inactive)
REMARK    1  A    between atoms: C_1  and  N_20
REMARK    2  A    between atoms: C_2  and  N_20
REMARK    3  A    between atoms: C_3  and  S_26
REMARK    4  A    between atoms: C_9  and  C_11
REMARK    5  A    between atoms: C_11  and  C_12
REMARK    6  A    between atoms: N_20  and  S_26
REMARK                            x       y       z     vdW  Elec       q    Type
REMARK                         _______ _______ _______ _____ _____    ______ ____
ROOT
ATOM      1  C   UNL     1      27.186 -15.105  -8.051  0.00  0.00    +0.122 A 
ATOM      2  C   UNL     1      27.979 -13.985  -8.341  0.00  0.00    +0.021 A 
ATOM      3  C   UNL     1      27.658 -12.721  -7.826  0.00  0.00    +0.018 A 
ATOM      4  C   UNL     1      26.541 -12.590  -7.012  0.00  0.00    +0.074 A 
ATOM      5  N   UNL     1      26.027 -11.531  -6.374  0.00  0.00    -0.176 NA
ATOM      6  C   UNL     1      24.946 -11.926  -5.681  0.00  0.00    +0.265 C 
ATOM      7  O   UNL     1      24.258 -11.161  -5.013  0.00  0.00    -0.268 OA
ATOM      8  C   UNL     1      24.729 -13.305  -5.889  0.00  0.00    +0.032 C 
ATOM      9  C   UNL     1      25.748 -13.724  -6.727  0.00  0.00    +0.017 A 
ATOM     10  C   UNL     1      26.066 -14.977  -7.242  0.00  0.00    +0.021 A 
ENDROOT
BRANCH   1  11
ATOM     11  S   UNL     1      27.597 -16.715  -8.752  0.00  0.00    +0.062 S 
ATOM     12  O   UNL     1      27.669 -17.740  -7.684  0.00  0.00    -0.153 OA
ATOM     13  O   UNL     1      28.891 -16.488  -9.438  0.00  0.00    -0.153 OA
BRANCH  11  15
ATOM     14  C   UNL     1      26.557 -18.479 -10.418  0.00  0.00    +0.131 C 
ATOM     15  N   UNL     1      26.346 -17.144  -9.846  0.00  0.00    -0.183 NA
ATOM     16  C   UNL     1      26.246 -16.152 -10.942  0.00  0.00    +0.131 C 
ENDBRANCH  11  15
ENDBRANCH   1  11
BRANCH   8  17
ATOM     17  C   UNL     1      23.746 -14.172  -5.416  0.00  0.00    +0.097 C 
BRANCH  17  18
ATOM     18  C   UNL     1      22.706 -14.691  -6.190  0.00  0.00    +0.054 A 
ATOM     19  N   UNL     1      22.265 -15.959  -6.304  0.00  0.00    -0.255 NA
ATOM     20  C   UNL     1      21.267 -15.977  -7.202  0.00  0.00    +0.045 A 
ATOM     21  C   UNL     1      20.467 -17.196  -7.667  0.00  0.00    +0.056 C 
ATOM     22  C   UNL     1      19.859 -16.909  -9.059  0.00  0.00    +0.006 C 
ATOM     23  C   UNL     1      19.254 -15.498  -9.256  0.00  0.00    +0.005 C 
ATOM     24  C   UNL     1      20.019 -14.276  -8.689  0.00  0.00    +0.037 C 
ATOM     25  C   UNL     1      21.070 -14.676  -7.642  0.00  0.00    -0.017 A 
ATOM     26  C   UNL     1      21.980 -13.892  -7.011  0.00  0.00    +0.011 A 
ENDBRANCH  17  18
ENDBRANCH   8  17
TORSDOF 4
ENDMDL
