2wel
  PyMOL2.3          3D                             0

 26 29  0  0  0  0  0  0  0  0999 V2000
   19.1190  -12.6130   -4.1650 C   0  0  0  0  0  0  0  0  0  0  0  0
   19.7140  -10.5150   -3.1500 C   0  0  0  0  0  0  0  0  0  0  0  0
   20.2800  -13.3010   -1.3690 C   0  0  0  0  0  0  0  0  0  0  0  0
   21.4530  -12.6200   -1.0770 C   0  0  0  0  0  0  0  0  0  0  0  0
   22.6370  -13.3410   -0.9530 C   0  0  0  0  0  0  0  0  0  0  0  0
   22.6620  -14.7440   -1.1170 C   0  0  0  0  0  0  0  0  0  0  0  0
   21.4870  -15.4210   -1.4140 C   0  0  0  0  0  0  0  0  0  0  0  0
   20.2950  -14.6940   -1.5350 C   0  0  0  0  0  0  0  0  0  0  0  0
   23.9280  -12.9460   -0.6490 C   0  0  0  0  0  0  0  0  0  0  0  0
   24.6960  -14.1290   -0.6260 C   0  0  0  0  0  0  0  0  0  0  0  0
   24.2700  -11.6120   -0.4340 C   0  0  0  0  0  0  0  0  0  0  0  0
   25.5780  -11.1310   -0.3480 C   0  0  0  0  0  0  0  0  0  0  0  0
   25.8340   -9.7990   -0.3570 C   0  0  0  0  0  0  0  0  0  0  0  0
   27.1760   -9.6420   -0.2370 C   0  0  0  0  0  0  0  0  0  0  0  0
   27.7350  -10.9080   -0.1360 C   0  0  0  0  0  0  0  0  0  0  0  0
   27.9900   -8.3400   -0.1740 C   0  0  0  0  0  0  0  0  0  0  0  0
   29.4950   -8.5940    0.0920 C   0  0  0  0  0  0  0  0  0  0  0  0
   29.9270   -9.9720    0.6500 C   0  0  0  0  0  0  0  0  0  0  0  0
   29.2280  -11.2030    0.0290 C   0  0  0  0  0  0  0  0  0  0  0  0
   18.7620  -11.6500   -3.1160 N   0  0  0  0  0  0  0  0  0  0  0  0
   23.9130  -15.1800   -0.9200 N   0  0  0  0  0  0  0  0  0  0  0  0
   26.7380  -11.8030   -0.2210 N   0  0  0  0  0  0  0  0  0  0  0  0
   17.6860  -13.4130   -1.4400 O   0  0  0  0  0  0  0  0  0  0  0  0
   18.6450  -11.3140   -0.5370 O   0  0  0  0  0  0  0  0  0  0  0  0
   25.9010  -14.2260   -0.4140 O   0  0  0  0  0  0  0  0  0  0  0  0
   18.7420  -12.3790   -1.5630 S   0  0  0  0  0  0  0  0  0  0  0  0
  1 20  1  0  0  0  0
  3  4  4  0  0  0  0
  3  8  4  0  0  0  0
  4  5  4  0  0  0  0
  5  6  4  0  0  0  0
  5  9  4  0  0  0  0
  6 21  4  0  0  0  0
  6  7  4  0  0  0  0
  7  8  4  0  0  0  0
  9 11  1  0  0  0  0
  9 10  4  0  0  0  0
 10 25  2  0  0  0  0
 11 12  1  0  0  0  0
 12 13  4  0  0  0  0
 12 22  4  0  0  0  0
 13 14  4  0  0  0  0
 14 15  4  0  0  0  0
 14 16  1  0  0  0  0
 15 22  4  0  0  0  0
 16 17  1  0  0  0  0
 17 18  1  0  0  0  0
 18 19  1  0  0  0  0
 15 19  1  0  0  0  0
  2 20  1  0  0  0  0
 20 26  1  0  0  0  0
 10 21  4  0  0  0  0
  3 26  1  0  0  0  0
 23 26  2  0  0  0  0
 24 26  2  0  0  0  0
M  END
$$$$
