REMARK  Name = 2wel
REMARK  6 active torsions:
REMARK  status: ('A' for Active; 'I' for Inactive)
REMARK    1  A    between atoms: C_1  and  N_20
REMARK    2  A    between atoms: C_2  and  N_20
REMARK    3  A    between atoms: C_3  and  S_26
REMARK    4  A    between atoms: C_9  and  C_11
REMARK    5  A    between atoms: C_11  and  C_12
REMARK    6  A    between atoms: N_20  and  S_26
REMARK                            x       y       z     vdW  Elec       q    Type
REMARK                         _______ _______ _______ _____ _____    ______ ____
ROOT
ATOM      1  C   UNL     1      20.280 -13.301  -1.369  0.00  0.00    +0.122 A 
ATOM      2  C   UNL     1      20.295 -14.694  -1.535  0.00  0.00    +0.021 A 
ATOM      3  C   UNL     1      21.487 -15.421  -1.414  0.00  0.00    +0.018 A 
ATOM      4  C   UNL     1      22.662 -14.744  -1.117  0.00  0.00    +0.074 A 
ATOM      5  N   UNL     1      23.913 -15.180  -0.920  0.00  0.00    -0.176 NA
ATOM      6  C   UNL     1      24.696 -14.129  -0.626  0.00  0.00    +0.265 C 
ATOM      7  O   UNL     1      25.901 -14.226  -0.414  0.00  0.00    -0.268 OA
ATOM      8  C   UNL     1      23.928 -12.946  -0.649  0.00  0.00    +0.032 C 
ATOM      9  C   UNL     1      22.637 -13.341  -0.953  0.00  0.00    +0.017 A 
ATOM     10  C   UNL     1      21.453 -12.620  -1.077  0.00  0.00    +0.021 A 
ENDROOT
BRANCH   1  11
ATOM     11  S   UNL     1      18.742 -12.379  -1.563  0.00  0.00    +0.062 S 
ATOM     12  O   UNL     1      18.645 -11.314  -0.537  0.00  0.00    -0.153 OA
ATOM     13  O   UNL     1      17.686 -13.413  -1.440  0.00  0.00    -0.153 OA
BRANCH  11  15
ATOM     14  C   UNL     1      19.119 -12.613  -4.165  0.00  0.00    +0.131 C 
ATOM     15  N   UNL     1      18.762 -11.650  -3.116  0.00  0.00    -0.183 NA
ATOM     16  C   UNL     1      19.714 -10.515  -3.150  0.00  0.00    +0.131 C 
ENDBRANCH  11  15
ENDBRANCH   1  11
BRANCH   8  17
ATOM     17  C   UNL     1      24.270 -11.612  -0.434  0.00  0.00    +0.097 C 
BRANCH  17  18
ATOM     18  C   UNL     1      25.578 -11.131  -0.348  0.00  0.00    +0.054 A 
ATOM     19  N   UNL     1      26.738 -11.803  -0.221  0.00  0.00    -0.255 NA
ATOM     20  C   UNL     1      27.735 -10.908  -0.136  0.00  0.00    +0.045 A 
ATOM     21  C   UNL     1      29.228 -11.203   0.029  0.00  0.00    +0.056 C 
ATOM     22  C   UNL     1      29.927  -9.972   0.650  0.00  0.00    +0.006 C 
ATOM     23  C   UNL     1      29.495  -8.594   0.092  0.00  0.00    +0.005 C 
ATOM     24  C   UNL     1      27.990  -8.340  -0.174  0.00  0.00    +0.037 C 
ATOM     25  C   UNL     1      27.176  -9.642  -0.237  0.00  0.00    -0.017 A 
ATOM     26  C   UNL     1      25.834  -9.799  -0.357  0.00  0.00    +0.011 A 
ENDBRANCH  17  18
ENDBRANCH   8  17
TORSDOF 4
