DB08569
     RDKit          2D

 28 31  0  0  0  0  0  0  0  0999 V2000
   -3.3702    2.5103    0.0000 N   0  0  0  0  0  0  0  0  0  0  0  0
    1.4717    1.6853    0.0000 N   0  0  0  0  0  0  0  0  0  0  0  0
   -2.1006    2.9228    0.0000 C   0  0  0  0  0  0  0  0  0  0  0  0
   -1.3861    3.3353    0.0000 C   0  0  0  0  0  0  0  0  0  0  0  0
   -0.6717    2.9228    0.0000 C   0  0  0  0  0  0  0  0  0  0  0  0
   -2.8852    1.8428    0.0000 C   0  0  0  0  0  0  0  0  0  0  0  0
   -1.3861   -3.2647    0.0000 C   0  0  0  0  0  0  0  0  0  0  0  0
   -0.6717   -4.5022    0.0000 C   0  0  0  0  0  0  0  0  0  0  0  0
   -3.1402    1.0582    0.0000 C   0  0  0  0  0  0  0  0  0  0  0  0
   -0.6717   -2.8522    0.0000 C   0  0  0  0  0  0  0  0  0  0  0  0
    0.0428    1.6853    0.0000 C   0  0  0  0  0  0  0  0  0  0  0  0
    0.0428    0.8603    0.0000 C   0  0  0  0  0  0  0  0  0  0  0  0
    0.7573    0.4478    0.0000 C   0  0  0  0  0  0  0  0  0  0  0  0
    0.0428   -0.7897    0.0000 C   0  0  0  0  0  0  0  0  0  0  0  0
   -0.6717    2.0978    0.0000 C   0  0  0  0  0  0  0  0  0  0  0  0
   -1.3861    1.6853    0.0000 C   0  0  0  0  0  0  0  0  0  0  0  0
   -2.1006    2.0978    0.0000 C   0  0  0  0  0  0  0  0  0  0  0  0
   -2.8852    3.1777    0.0000 N   0  0  0  0  0  0  0  0  0  0  0  0
   -1.3861   -4.0897    0.0000 C   0  0  0  0  0  0  0  0  0  0  0  0
    0.0428   -3.2647    0.0000 C   0  0  0  0  0  0  0  0  0  0  0  0
    1.4717    0.8603    0.0000 C   0  0  0  0  0  0  0  0  0  0  0  0
    0.7573    2.0978    0.0000 C   0  0  0  0  0  0  0  0  0  0  0  0
    0.0428   -4.0897    0.0000 C   0  0  0  0  0  0  0  0  0  0  0  0
    0.7573   -0.3772    0.0000 O   0  0  0  0  0  0  0  0  0  0  0  0
    0.0428   -1.6147    0.0000 C   0  0  0  0  0  0  0  0  0  0  0  0
   -0.6717   -2.0272    0.0000 C   0  0  0  0  0  0  0  0  0  0  0  0
    0.7573   -2.0272    0.0000 N   0  0  0  0  0  0  0  0  0  0  0  0
   -0.6717   -5.3272    0.0000 Br  0  0  0  0  0  0  0  0  0  0  0  0
  1  6  2  0
  1 18  1  0
  2 21  2  0
  2 22  1  0
  3  4  1  0
  3 17  2  0
  3 18  1  0
  4  5  2  0
  5 15  1  0
  6  9  1  0
  6 17  1  0
  7 10  2  0
  7 19  1  0
  8 19  2  0
  8 23  1  0
  8 28  1  0
 10 20  1  0
 10 26  1  0
 11 12  1  0
 11 15  1  0
 11 22  2  0
 12 13  2  0
 13 21  1  0
 13 24  1  0
 14 24  1  0
 14 25  1  0
 15 16  2  0
 16 17  1  0
 20 23  2  0
 25 26  1  0
 25 27  1  1
M  END
>  <ALOGPS_LOGP>  (1) 
4.16

>  <ALOGPS_LOGS>  (1) 
-5.30

>  <ALOGPS_SOLUBILITY>  (1) 
2.18e-03 g/l

>  <DATABASE_NAME>  (1) 
drugbank

>  <DRUGBANK_ID>  (1) 
DB08569

>  <DRUG_GROUPS>  (1) 
experimental

>  <EXACT_MASS>  (1) 
436.089873961

>  <FORMULA>  (1) 
C22H21BrN4O

>  <GENERIC_NAME>  (1) 
3-PYRIDIN-4-YL-2,4-DIHYDRO-INDENO[1,2-.C.] PYRAZOLE

>  <ID>  (1) 
SS4

>  <INCHI_IDENTIFIER>  (1) 
InChI=1S/C22H21BrN4O/c1-14-21-10-16(4-7-22(21)27-26-14)17-9-20(12-25-11-17)28-13-19(24)8-15-2-5-18(23)6-3-15/h2-7,9-12,19H,8,13,24H2,1H3,(H,26,27)/t19-/m0/s1

>  <INCHI_KEY>  (1) 
VLPMRZSKJUTRBQ-IBGZPJMESA-N

>  <INTERNATIONAL_BRANDS>  (1) 
nan

>  <JCHEM_ACCEPTOR_COUNT>  (1) 
4

>  <JCHEM_ATOM_COUNT>  (1) 
nan

>  <JCHEM_AVERAGE_POLARIZABILITY>  (1) 
44.09271352895492

>  <JCHEM_BIOAVAILABILITY>  (1) 
1

>  <JCHEM_DONOR_COUNT>  (1) 
2

>  <JCHEM_FORMAL_CHARGE>  (1) 
0

>  <JCHEM_GHOSE_FILTER>  (1) 
1

>  <JCHEM_IUPAC>  (1) 
(2S)-1-(4-bromophenyl)-3-{[5-(3-methyl-1H-indazol-5-yl)pyridin-3-yl]oxy}propan-2-amine

>  <JCHEM_LOGP>  (1) 
3.744229735666666

>  <JCHEM_MDDR_LIKE_RULE>  (1) 
1

>  <JCHEM_NUMBER_OF_RINGS>  (1) 
4

>  <JCHEM_PHYSIOLOGICAL_CHARGE>  (1) 
1

>  <JCHEM_PKA>  (1) 
nan

>  <JCHEM_PKA_STRONGEST_ACIDIC>  (1) 
14.173014456117688

>  <JCHEM_PKA_STRONGEST_BASIC>  (1) 
9.279285926973882

>  <JCHEM_POLAR_SURFACE_AREA>  (1) 
76.82

>  <JCHEM_REFRACTIVITY>  (1) 
114.71750000000002

>  <JCHEM_ROTATABLE_BOND_COUNT>  (1) 
6

>  <JCHEM_RULE_OF_FIVE>  (1) 
1

>  <JCHEM_TRADITIONAL_IUPAC>  (1) 
(2S)-1-(4-bromophenyl)-3-{[5-(3-methyl-1H-indazol-5-yl)pyridin-3-yl]oxy}propan-2-amine

>  <JCHEM_VEBER_RULE>  (1) 
0

>  <MOLECULAR_WEIGHT>  (1) 
437.332

>  <PRODUCTS>  (1) 
nan

>  <SALTS>  (1) 
nan

>  <SECONDARY_ACCESSION_NUMBERS>  (1) 
nan

>  <SMILES>  (1) 
[H][C@@](N)(COC1=CN=CC(=C1)C1=CC2=C(NN=C2C)C=C1)CC1=CC=C(Br)C=C1

>  <SYNONYMS>  (1) 
nan

>  <ECFP_FP>  (1) 
<rdkit.DataStructs.cDataStructs.ExplicitBitVect object at 0xa26b33df0>

>  <pki_G>  (1) 
7.148293

>  <pki_D>  (1) 
7.072535

>  <pki_B>  (1) 
6.371534

>  <pki_A>  (1) 
5.772417

>  <SelB>  (1) 
0.77676

>  <SelA>  (1) 
1.375876

>  <SelD>  (1) 
0.075758

>  <AvgABSel>  (1) 
1.076318

>  <MACCS_FP>  (1) 
[0. 0. 0. 0. 0. 0. 0. 0. 0. 0. 0. 0. 0. 0. 0. 0. 0. 0. 0. 0. 0. 0. 0. 0.
 0. 0. 0. 0. 0. 0. 0. 0. 0. 0. 0. 0. 0. 0. 0. 0. 0. 0. 0. 0. 0. 0. 1. 0.
 0. 0. 0. 0. 1. 0. 0. 0. 0. 0. 0. 0. 0. 0. 1. 0. 0. 1. 0. 0. 0. 1. 0. 0.
 0. 0. 0. 0. 0. 0. 0. 0. 1. 0. 0. 1. 1. 0. 0. 1. 0. 0. 0. 0. 0. 0. 1. 1.
 1. 0. 1. 0. 0. 1. 0. 0. 1. 1. 0. 1. 0. 1. 0. 1. 0. 1. 0. 0. 0. 0. 0. 0.
 1. 1. 0. 0. 1. 1. 1. 1. 0. 0. 0. 1. 0. 0. 1. 0. 0. 1. 0. 0. 0. 0. 1. 1.
 0. 1. 0. 0. 0. 0. 0. 1. 1. 1. 0. 1. 1. 1. 1. 0. 1. 1. 1. 1. 1. 1. 0.]

>  <MACCS_pki_G>  (1) 
7.178563

>  <MACCS_pki_D>  (1) 
6.638685

>  <MACCS_pki_B>  (1) 
6.386019

>  <MACCS_pki_A>  (1) 
5.591964

>  <MACCS_SelB>  (1) 
0.792544

>  <MACCS_SelA>  (1) 
1.586599

>  <MACCS_SelD>  (1) 
0.539878

>  <MACCSAvgABSel>  (1) 
1.189572

>  <Pharm2D_FP>  (1) 
[0. 0. 0. ... 0. 0. 0.]

>  <Pharm2D_pki_G>  (1) 
6.569496

>  <Pharm2D_pki_D>  (1) 
7.229622

>  <Pharm2D_pki_B>  (1) 
6.358321

>  <Pharm2D_pki_A>  (1) 
5.502151

>  <Pharm2D_SelB>  (1) 
0.211176

>  <Pharm2D_SelA>  (1) 
1.067345

>  <Pharm2D_SelD>  (1) 
-0.660125

>  <Pharm2DAvgABSel>  (1) 
0.63926

>  <QED>  (1) 
0.460743

$$$$
DB07107
     RDKit          2D

 28 31  0  0  0  0  0  0  0  0999 V2000
   -1.2344    2.4970    0.0000 C   0  0  0  0  0  0  0  0  0  0  0  0
   -0.4274    2.3254    0.0000 C   0  0  0  0  0  0  0  0  0  0  0  0
    0.1246    2.9385    0.0000 C   0  0  0  0  0  0  0  0  0  0  0  0
   -0.1303    3.7232    0.0000 C   0  0  0  0  0  0  0  0  0  0  0  0
    0.9316    2.7670    0.0000 C   0  0  0  0  0  0  0  0  0  0  0  0
    1.4836    3.3801    0.0000 C   0  0  0  0  0  0  0  0  0  0  0  0
    1.2287    4.1647    0.0000 N   0  0  0  0  0  0  0  0  0  0  0  0
    0.4217    4.3363    0.0000 C   0  0  0  0  0  0  0  0  0  0  0  0
    2.5088   -3.2907    0.0000 C   0  0  0  0  0  0  0  0  0  0  0  0
    1.7944   -3.7032    0.0000 C   0  0  0  0  0  0  0  0  0  0  0  0
    1.0799   -3.2907    0.0000 C   0  0  0  0  0  0  0  0  0  0  0  0
    1.0799   -2.4657    0.0000 C   0  0  0  0  0  0  0  0  0  0  0  0
    1.7944   -2.0532    0.0000 C   0  0  0  0  0  0  0  0  0  0  0  0
    2.5088   -2.4657    0.0000 C   0  0  0  0  0  0  0  0  0  0  0  0
    0.2953   -3.5456    0.0000 N   0  0  0  0  0  0  0  0  0  0  0  0
   -0.1896   -2.8782    0.0000 C   0  0  0  0  0  0  0  0  0  0  0  0
    0.2953   -2.2108    0.0000 C   0  0  0  0  0  0  0  0  0  0  0  0
   -2.8905    0.6577    0.0000 C   0  0  0  0  0  0  0  0  0  0  0  0
   -3.1454    1.4423    0.0000 N   0  0  0  0  0  0  0  0  0  0  0  0
   -2.5934    2.0554    0.0000 C   0  0  0  0  0  0  0  0  0  0  0  0
   -1.7864    1.8839    0.0000 C   0  0  0  0  0  0  0  0  0  0  0  0
   -1.5315    1.0993    0.0000 C   0  0  0  0  0  0  0  0  0  0  0  0
   -2.0835    0.4862    0.0000 C   0  0  0  0  0  0  0  0  0  0  0  0
   -1.8285   -0.2985    0.0000 O   0  0  0  0  0  0  0  0  0  0  0  0
   -1.0216   -0.4700    0.0000 C   0  0  0  0  0  0  0  0  0  0  0  0
   -0.7666   -1.2546    0.0000 C   0  0  0  0  0  0  0  0  0  0  0  0
    0.0403   -1.4261    0.0000 C   0  0  0  0  0  0  0  0  0  0  0  0
   -1.3187   -1.8677    0.0000 N   0  0  0  0  0  0  0  0  0  0  0  0
  1  2  2  0
  1 21  1  0
  2  3  1  0
  3  4  2  0
  3  5  1  0
  4  8  1  0
  5  6  2  0
  6  7  1  0
  7  8  2  0
  9 10  2  0
  9 14  1  0
 10 11  1  0
 11 12  2  0
 11 15  1  0
 12 13  1  0
 12 17  1  0
 13 14  2  0
 15 16  1  0
 16 17  2  0
 17 27  1  0
 18 19  2  0
 18 23  1  0
 19 20  1  0
 20 21  2  0
 21 22  1  0
 22 23  2  0
 23 24  1  0
 24 25  1  0
 25 26  1  0
 26 27  1  0
 26 28  1  6
M  END
>  <ALOGPS_LOGP>  (2) 
3.12

>  <ALOGPS_LOGS>  (2) 
-5.69

>  <ALOGPS_SOLUBILITY>  (2) 
7.53e-04 g/l

>  <DATABASE_NAME>  (2) 
drugbank

>  <DRUGBANK_ID>  (2) 
DB07107

>  <DRUG_GROUPS>  (2) 
experimental

>  <EXACT_MASS>  (2) 
370.179361346

>  <FORMULA>  (2) 
C23H22N4O

>  <GENERIC_NAME>  (2) 
(1S)-2-(1H-INDOL-3-YL)-1-[({5-[(E)-2-PYRIDIN-4-YLVINYL]PYRIDIN-3-YL}OXY)METHYL]ETHYLAMINE

>  <ID>  (2) 
4EA

>  <INCHI_IDENTIFIER>  (2) 
InChI=1S/C23H22N4O/c24-20(12-19-14-27-23-4-2-1-3-22(19)23)16-28-21-11-18(13-26-15-21)6-5-17-7-9-25-10-8-17/h1-11,13-15,20,27H,12,16,24H2/b6-5+/t20-/m0/s1

>  <INCHI_KEY>  (2) 
SGHXFHRRWFLILP-XJDXJNMNSA-N

>  <INTERNATIONAL_BRANDS>  (2) 
nan

>  <JCHEM_ACCEPTOR_COUNT>  (2) 
4

>  <JCHEM_ATOM_COUNT>  (2) 
nan

>  <JCHEM_AVERAGE_POLARIZABILITY>  (2) 
41.933011697844094

>  <JCHEM_BIOAVAILABILITY>  (2) 
1

>  <JCHEM_DONOR_COUNT>  (2) 
2

>  <JCHEM_FORMAL_CHARGE>  (2) 
0

>  <JCHEM_GHOSE_FILTER>  (2) 
1

>  <JCHEM_IUPAC>  (2) 
(2S)-1-(1H-indol-3-yl)-3-({5-[(E)-2-(pyridin-4-yl)ethenyl]pyridin-3-yl}oxy)propan-2-amine

>  <JCHEM_LOGP>  (2) 
3.0947503083333325

>  <JCHEM_MDDR_LIKE_RULE>  (2) 
1

>  <JCHEM_NUMBER_OF_RINGS>  (2) 
4

>  <JCHEM_PHYSIOLOGICAL_CHARGE>  (2) 
1

>  <JCHEM_PKA>  (2) 
nan

>  <JCHEM_PKA_STRONGEST_ACIDIC>  (2) 
17.10772023781099

>  <JCHEM_PKA_STRONGEST_BASIC>  (2) 
9.235441638397388

>  <JCHEM_POLAR_SURFACE_AREA>  (2) 
76.82

>  <JCHEM_REFRACTIVITY>  (2) 
111.73629999999996

>  <JCHEM_ROTATABLE_BOND_COUNT>  (2) 
7

>  <JCHEM_RULE_OF_FIVE>  (2) 
1

>  <JCHEM_TRADITIONAL_IUPAC>  (2) 
(2S)-1-(1H-indol-3-yl)-3-({5-[(E)-2-(pyridin-4-yl)ethenyl]pyridin-3-yl}oxy)propan-2-amine

>  <JCHEM_VEBER_RULE>  (2) 
0

>  <MOLECULAR_WEIGHT>  (2) 
370.447

>  <PRODUCTS>  (2) 
nan

>  <SALTS>  (2) 
nan

>  <SECONDARY_ACCESSION_NUMBERS>  (2) 
nan

>  <SMILES>  (2) 
[H][C@@](N)(COC1=CN=CC(\C=C\C2=CC=NC=C2)=C1)CC1=CNC2=C1C=CC=C2

>  <SYNONYMS>  (2) 
nan

>  <ECFP_FP>  (2) 
<rdkit.DataStructs.cDataStructs.ExplicitBitVect object at 0xa26a50990>

>  <pki_G>  (2) 
6.573702

>  <pki_D>  (2) 
5.740097

>  <pki_B>  (2) 
5.974193

>  <pki_A>  (2) 
5.557281

>  <SelB>  (2) 
0.599509

>  <SelA>  (2) 
1.016421

>  <SelD>  (2) 
0.833604

>  <AvgABSel>  (2) 
0.807965

>  <MACCS_FP>  (2) 
[0. 0. 0. 0. 0. 0. 0. 0. 0. 0. 0. 0. 0. 0. 0. 0. 0. 0. 0. 0. 0. 0. 0. 0.
 0. 0. 0. 0. 0. 0. 0. 0. 0. 0. 0. 0. 0. 0. 0. 0. 0. 0. 0. 0. 0. 0. 0. 0.
 0. 0. 0. 0. 0. 0. 0. 0. 0. 0. 0. 0. 0. 0. 0. 0. 0. 1. 0. 0. 0. 0. 0. 0.
 0. 0. 0. 0. 0. 0. 0. 0. 0. 0. 0. 1. 1. 0. 0. 0. 0. 0. 1. 1. 0. 0. 0. 1.
 1. 0. 1. 1. 0. 1. 0. 0. 1. 1. 0. 0. 0. 1. 0. 1. 0. 1. 0. 0. 0. 0. 0. 0.
 1. 1. 0. 0. 0. 1. 1. 1. 0. 0. 0. 1. 0. 0. 0. 0. 0. 1. 0. 0. 0. 0. 1. 1.
 0. 1. 0. 0. 0. 0. 0. 1. 1. 1. 0. 1. 1. 1. 1. 0. 0. 1. 1. 1. 1. 1. 0.]

>  <MACCS_pki_G>  (2) 
6.153938

>  <MACCS_pki_D>  (2) 
6.242837

>  <MACCS_pki_B>  (2) 
6.279412

>  <MACCS_pki_A>  (2) 
6.136

>  <MACCS_SelB>  (2) 
-0.125473

>  <MACCS_SelA>  (2) 
0.017938

>  <MACCS_SelD>  (2) 
-0.088899

>  <MACCSAvgABSel>  (2) 
-0.053768

>  <Pharm2D_FP>  (2) 
[0. 0. 0. ... 0. 0. 0.]

>  <Pharm2D_pki_G>  (2) 
6.16616

>  <Pharm2D_pki_D>  (2) 
5.325473

>  <Pharm2D_pki_B>  (2) 
5.592175

>  <Pharm2D_pki_A>  (2) 
5.604191

>  <Pharm2D_SelB>  (2) 
0.573985

>  <Pharm2D_SelA>  (2) 
0.561969

>  <Pharm2D_SelD>  (2) 
0.840687

>  <Pharm2DAvgABSel>  (2) 
0.567977

>  <QED>  (2) 
0.513901

$$$$
DB08993
     RDKit          2D

 48 49  0  0  1  0  0  0  0  0999 V2000
   -1.4289    2.4750    0.0000 C   0  0  0  0  0  0  0  0  0  0  0  0
    0.7144    6.1875    0.0000 C   0  0  0  0  0  0  0  0  0  0  0  0
   -2.1434    2.8875    0.0000 C   0  0  0  0  0  0  0  0  0  0  0  0
    0.0000    6.6000    0.0000 C   0  0  0  0  0  0  0  0  0  0  0  0
    0.7144    2.8875    0.0000 C   0  0  0  0  0  0  0  0  0  0  0  0
    1.4289    3.3000    0.0000 C   0  0  0  0  0  0  0  0  0  0  0  0
    1.4289    7.4250    0.0000 C   0  0  0  0  0  0  0  0  0  0  0  0
    4.2868    6.6000    0.0000 C   0  0  0  0  0  0  0  0  0  0  0  0
    4.2868    4.1250    0.0000 C   0  0  0  0  0  0  0  0  0  0  0  0
    0.0000    2.4750    0.0000 C   0  0  0  0  0  0  0  0  0  0  0  0
    0.7144    5.3625    0.0000 C   0  0  0  0  0  0  0  0  0  0  0  0
    2.1434    3.7125    0.0000 C   0  0  0  0  0  0  0  0  0  0  0  0
    2.1434    7.0125    0.0000 C   0  0  0  0  0  0  0  0  0  0  0  0
    3.5723    6.1875    0.0000 C   0  0  0  0  0  0  0  0  0  0  0  0
    3.5723    4.5375    0.0000 C   0  0  0  0  0  0  0  0  0  0  0  0
   -0.7144    2.8875    0.0000 C   0  0  0  0  0  0  0  0  0  0  0  0
    1.4289    2.4750    0.0000 C   0  0  0  0  0  0  0  0  0  0  0  0
    1.4289    4.9500    0.0000 C   0  0  0  0  0  0  0  0  0  0  0  0
    2.8578    3.3000    0.0000 C   0  0  0  0  0  0  0  0  0  0  0  0
    2.1434    6.1875    0.0000 C   0  0  0  0  0  0  0  0  0  0  0  0
    3.5723    7.0125    0.0000 C   0  0  0  0  0  0  0  0  0  0  0  0
    4.2868    4.9500    0.0000 C   0  0  0  0  0  0  0  0  0  0  0  0
    0.7144    4.5375    0.0000 C   0  0  0  0  0  0  0  0  0  0  0  0
   -0.7144    5.3625    0.0000 C   0  0  0  0  0  0  0  0  0  0  0  0
    2.1434    8.6625    0.0000 C   0  0  0  0  0  0  0  0  0  0  0  0
   -2.8578    2.4750    0.0000 N   0  0  0  0  0  0  0  0  0  0  0  0
    0.0000    1.6500    0.0000 N   0  0  0  0  0  0  0  0  0  0  0  0
   -1.4289    4.9500    0.0000 N   0  0  0  0  0  0  0  0  0  0  0  0
    2.1434    9.4875    0.0000 N   0  0  0  0  0  0  0  0  0  0  0  0
   -0.7144    6.1875    0.0000 N   0  0  0  0  0  0  0  0  0  0  0  0
    0.7144    3.7125    0.0000 N   0  0  0  0  0  0  0  0  0  0  0  0
    1.4289    8.2500    0.0000 N   0  0  0  0  0  0  0  0  0  0  0  0
    2.1434    2.8875    0.0000 N   0  0  0  0  0  0  0  0  0  0  0  0
    2.8578    7.4250    0.0000 N   0  0  0  0  0  0  0  0  0  0  0  0
    3.5723    3.7125    0.0000 N   0  0  0  0  0  0  0  0  0  0  0  0
    4.2868    5.7750    0.0000 N   0  0  0  0  0  0  0  0  0  0  0  0
    0.0000    4.9500    0.0000 N   0  0  0  0  0  0  0  0  0  0  0  0
    1.4289    5.7750    0.0000 N   0  0  0  0  0  0  0  0  0  0  0  0
    5.0012    6.1875    0.0000 O   0  0  0  0  0  0  0  0  0  0  0  0
    4.2868    3.3000    0.0000 O   0  0  0  0  0  0  0  0  0  0  0  0
   -0.7144    3.7125    0.0000 O   0  0  0  0  0  0  0  0  0  0  0  0
    1.4289    1.6500    0.0000 O   0  0  0  0  0  0  0  0  0  0  0  0
    2.8578    2.4750    0.0000 O   0  0  0  0  0  0  0  0  0  0  0  0
    2.8578    5.7750    0.0000 O   0  0  0  0  0  0  0  0  0  0  0  0
    4.2868    7.4250    0.0000 O   0  0  0  0  0  0  0  0  0  0  0  0
    5.0012    4.5375    0.0000 O   0  0  0  0  0  0  0  0  0  0  0  0
   -0.1060    4.4512    0.0000 O   0  0  0  0  0  0  0  0  0  0  0  0
    2.8578    8.2500    0.0000 O   0  0  0  0  0  0  0  0  0  0  0  0
  3  1  1  0
  4  2  1  0
 10  5  1  0
 11  2  1  6
 12  6  1  0
 13  7  2  3
 14  8  1  1
 15  9  1  1
 16  1  1  0
 16 10  1  0
 17  5  1  0
 11 18  1  0
 19 12  1  0
 20 13  1  0
 21 14  1  0
 22 15  1  0
 23 18  1  0
 26  3  1  0
 10 27  1  1
 28 24  2  0
 29 25  2  0
 30  4  1  0
 30 24  1  0
 31  6  1  0
 31 23  2  3
 32  7  1  0
 32 25  1  0
 12 33  1  6
 33 17  2  3
 34 13  1  0
 34 21  2  3
 35 15  1  0
 35 19  2  3
 36 14  1  0
 36 22  2  3
 37 11  1  0
 37 24  1  0
 18 38  1  6
 38 20  2  3
 39  8  1  0
 40  9  1  0
 16 41  1  1
 17 42  1  0
 19 43  1  0
 20 44  1  0
 45 21  1  0
 22 46  1  0
 47 23  1  0
 48 25  1  0
M  END
>  <ALOGPS_LOGP>  (3) 
-1.42

>  <ALOGPS_LOGS>  (3) 
-3.65

>  <ALOGPS_SOLUBILITY>  (3) 
1.55e-01 g/l

>  <DATABASE_NAME>  (3) 
drugbank

>  <DRUGBANK_ID>  (3) 
DB08993

>  <DRUG_GROUPS>  (3) 
experimental

>  <EXACT_MASS>  (3) 
685.325584661

>  <FORMULA>  (3) 
C25H43N13O10

>  <GENERIC_NAME>  (3) 
Enviomycin

>  <ID>  (3) 


>  <INCHI_IDENTIFIER>  (3) 
InChI=1S/C25H43N13O10/c26-3-1-16(41)10(27)5-17(42)33-12-6-31-23(47)18(11-2-4-30-24(28)37-11)38-20(44)13(7-32-25(29)48)34-21(45)14(8-39)36-22(46)15(9-40)35-19(12)43/h7,10-12,14-16,18,39-41H,1-6,8-9,26-27H2,(H,31,47)(H,33,42)(H,34,45)(H,35,43)(H,36,46)(H,38,44)(H3,28,30,37)(H3,29,32,48)/b13-7-/t10-,11-,12+,14+,15+,16-,18+/m1/s1

>  <INCHI_KEY>  (3) 
HPWIIERXAFODPP-GHBBWTPBSA-N

>  <INTERNATIONAL_BRANDS>  (3) 
Tuberactin

>  <JCHEM_ACCEPTOR_COUNT>  (3) 
23

>  <JCHEM_ATOM_COUNT>  (3) 
91

>  <JCHEM_AVERAGE_POLARIZABILITY>  (3) 
65.21043111931252

>  <JCHEM_BIOAVAILABILITY>  (3) 
0

>  <JCHEM_DONOR_COUNT>  (3) 
17

>  <JCHEM_FORMAL_CHARGE>  (3) 
0

>  <JCHEM_GHOSE_FILTER>  (3) 
0

>  <JCHEM_IUPAC>  (3) 
(3R,4R)-3,6-diamino-4-hydroxy-N-[(3S,6Z,9S,12S,15S)-2,5,8,11,14-pentahydroxy-6-{[(C-hydroxycarbonimidoyl)amino]methylidene}-9,12-bis(hydroxymethyl)-3-[(4R)-2-imino-1,3-diazinan-4-yl]-1,4,7,10,13-pentaazacyclohexadeca-1,4,7,10,13-pentaen-15-yl]hexanimidic acid

>  <JCHEM_LOGP>  (3) 
-9.580840802239267

>  <JCHEM_MDDR_LIKE_RULE>  (3) 
0

>  <JCHEM_NUMBER_OF_RINGS>  (3) 
2

>  <JCHEM_PHYSIOLOGICAL_CHARGE>  (3) 
3

>  <JCHEM_PKA>  (3) 
3.0040736920601545

>  <JCHEM_PKA_STRONGEST_ACIDIC>  (3) 
2.502554156358472

>  <JCHEM_PKA_STRONGEST_BASIC>  (3) 
11.737491247178113

>  <JCHEM_POLAR_SURFACE_AREA>  (3) 
412.29000000000013

>  <JCHEM_REFRACTIVITY>  (3) 
186.22490000000008

>  <JCHEM_ROTATABLE_BOND_COUNT>  (3) 
10

>  <JCHEM_RULE_OF_FIVE>  (3) 
0

>  <JCHEM_TRADITIONAL_IUPAC>  (3) 
(3R,4R)-3,6-diamino-4-hydroxy-N-[(3S,6Z,9S,12S,15S)-2,5,8,11,14-pentahydroxy-6-[(C-hydroxycarbonimidoylamino)methylidene]-9,12-bis(hydroxymethyl)-3-[(4R)-2-imino-1,3-diazinan-4-yl]-1,4,7,10,13-pentaazacyclohexadeca-1,4,7,10,13-pentaen-15-yl]hexanimidic acid

>  <JCHEM_VEBER_RULE>  (3) 
0

>  <MOLECULAR_WEIGHT>  (3) 
685.69

>  <PRODUCTS>  (3) 
nan

>  <SALTS>  (3) 
Enviomycin Sulfate

>  <SECONDARY_ACCESSION_NUMBERS>  (3) 
nan

>  <SMILES>  (3) 
[H]\C(NC(O)=N)=C1\N=C(O)[C@]([H])(CO)N=C(O)[C@]([H])(CO)N=C(O)[C@]([H])(CN=C(O)[C@@]([H])(N=C1O)[C@@]1([H])CCNC(=N)N1)N=C(O)C[C@@]([H])(N)[C@]([H])(O)CCN

>  <SYNONYMS>  (3) 
Enviomicina; Enviomycin; Enviomycine; Enviomycinum; Tuberactinomycin N

>  <ECFP_FP>  (3) 
<rdkit.DataStructs.cDataStructs.ExplicitBitVect object at 0xa26b6db70>

>  <pki_G>  (3) 
6.247446

>  <pki_D>  (3) 
5.899321

>  <pki_B>  (3) 
5.576289

>  <pki_A>  (3) 
5.442594

>  <SelB>  (3) 
0.671157

>  <SelA>  (3) 
0.804852

>  <SelD>  (3) 
0.348125

>  <AvgABSel>  (3) 
0.738005

>  <MACCS_FP>  (3) 
[0. 0. 0. 0. 0. 0. 0. 0. 0. 0. 0. 0. 0. 0. 0. 0. 0. 0. 0. 0. 0. 0. 0. 0.
 0. 1. 0. 0. 0. 0. 0. 0. 0. 0. 0. 0. 0. 1. 0. 0. 0. 0. 0. 1. 0. 1. 0. 0.
 0. 0. 0. 0. 0. 1. 1. 0. 0. 0. 0. 0. 0. 0. 1. 0. 0. 0. 0. 0. 0. 0. 0. 0.
 0. 0. 0. 0. 1. 1. 1. 1. 1. 0. 1. 0. 1. 0. 0. 0. 0. 1. 1. 1. 1. 0. 0. 1.
 0. 1. 1. 1. 1. 0. 0. 0. 1. 0. 1. 0. 0. 1. 1. 1. 0. 0. 0. 0. 0. 1. 1. 1.
 1. 1. 0. 0. 0. 0. 0. 1. 1. 1. 0. 1. 1. 1. 0. 0. 0. 1. 1. 1. 1. 0. 1. 1.
 0. 0. 1. 1. 0. 0. 1. 1. 1. 1. 0. 1. 1. 1. 1. 1. 0. 1. 0. 1. 1. 1. 0.]

>  <MACCS_pki_G>  (3) 
6.618311

>  <MACCS_pki_D>  (3) 
6.037781

>  <MACCS_pki_B>  (3) 
6.091583

>  <MACCS_pki_A>  (3) 
5.806143

>  <MACCS_SelB>  (3) 
0.526727

>  <MACCS_SelA>  (3) 
0.812167

>  <MACCS_SelD>  (3) 
0.58053

>  <MACCSAvgABSel>  (3) 
0.669447

>  <Pharm2D_FP>  (3) 
[0. 0. 0. ... 0. 0. 0.]

>  <Pharm2D_pki_G>  (3) 
6.719794

>  <Pharm2D_pki_D>  (3) 
6.743247

>  <Pharm2D_pki_B>  (3) 
6.194523

>  <Pharm2D_pki_A>  (3) 
5.362357

>  <Pharm2D_SelB>  (3) 
0.525271

>  <Pharm2D_SelA>  (3) 
1.357437

>  <Pharm2D_SelD>  (3) 
-0.023453

>  <Pharm2DAvgABSel>  (3) 
0.941354

>  <QED>  (3) 
0.078092

$$$$
DB13816
     RDKit          2D

 34 36  0  0  1  0  0  0  0  0999 V2000
    2.5600    0.7927    0.0000 C   0  0  0  0  0  0  0  0  0  0  0  0
    2.5600    1.8968    0.0000 C   0  0  0  0  0  0  0  0  0  0  0  0
    2.1439    7.5490    0.0000 C   0  0  0  0  0  0  0  0  0  0  0  0
   -2.4811    4.0907    0.0000 C   0  0  0  0  0  0  0  0  0  0  0  0
   -2.1113    2.7105    0.0000 C   0  0  0  0  0  0  0  0  0  0  0  0
   -3.2780    3.8772    0.0000 C   0  0  0  0  0  0  0  0  0  0  0  0
   -2.9082    2.4970    0.0000 C   0  0  0  0  0  0  0  0  0  0  0  0
    0.9200    5.7417    0.0000 C   0  0  0  0  0  0  0  0  0  0  0  0
   -1.8977    3.5074    0.0000 C   0  0  0  0  0  0  0  0  0  0  0  0
   -3.4915    3.0803    0.0000 C   0  0  0  0  0  0  0  0  0  0  0  0
    0.1231    5.5282    0.0000 C   0  0  0  0  0  0  0  0  0  0  0  0
    1.1335    6.5386    0.0000 C   0  0  0  0  0  0  0  0  0  0  0  0
   -1.1009    3.7209    0.0000 C   0  0  0  0  0  0  0  0  0  0  0  0
   -0.1477    1.7573    0.0000 C   0  0  0  0  0  0  0  0  0  0  0  0
    1.4620    0.6773    0.0000 C   0  0  0  0  0  0  0  0  0  0  0  0
   -0.0904    4.7313    0.0000 C   0  0  0  0  0  0  0  0  0  0  0  0
   -0.5175    3.1375    0.0000 C   0  0  0  0  0  0  0  0  0  0  0  0
   -0.1477    0.9323    0.0000 C   0  0  0  0  0  0  0  0  0  0  0  0
    0.6773    1.7573    0.0000 C   0  0  0  0  0  0  0  0  0  0  0  0
    1.7169   -0.1073    0.0000 C   0  0  0  0  0  0  0  0  0  0  0  0
    1.9469    1.3448    0.0000 C   0  0  0  0  0  0  0  0  0  0  0  0
   -0.4603    6.1116    0.0000 N   0  0  0  0  0  0  0  0  0  0  0  0
    1.9304    6.7521    0.0000 N   0  0  0  0  0  0  0  0  0  0  0  0
   -0.8873    4.5178    0.0000 N   0  0  0  0  0  0  0  0  0  0  0  0
   -0.7310    2.3406    0.0000 N   0  0  0  0  0  0  0  0  0  0  0  0
    0.6773    0.9323    0.0000 N   0  0  0  0  0  0  0  0  0  0  0  0
   -4.2884    2.8668    0.0000 O   0  0  0  0  0  0  0  0  0  0  0  0
    0.5501    7.1220    0.0000 O   0  0  0  0  0  0  0  0  0  0  0  0
    0.4929    4.1479    0.0000 O   0  0  0  0  0  0  0  0  0  0  0  0
    0.2794    3.3511    0.0000 O   0  0  0  0  0  0  0  0  0  0  0  0
   -0.7310    0.3489    0.0000 O   0  0  0  0  0  0  0  0  0  0  0  0
    2.5239   -0.2788    0.0000 O   0  0  0  0  0  0  0  0  0  0  0  0
    1.1649   -0.7204    0.0000 O   0  0  0  0  0  0  0  0  0  0  0  0
    1.4620    2.0122    0.0000 S   0  0  0  0  0  0  0  0  0  0  0  0
  6  4  2  0
  7  5  1  0
  9  4  1  0
  9  5  2  0
 10  6  1  0
 10  7  2  0
 11  8  1  0
 12  8  1  0
 13  9  1  0
 16 11  1  0
 17 13  1  0
 18 14  1  0
 19 14  1  0
 15 20  1  6
 21  1  1  0
 21  2  1  0
 21 15  1  0
 11 22  1  6
 23  3  1  0
 23 12  2  3
 13 24  1  1
 24 16  2  3
 14 25  1  1
 25 17  2  3
 26 15  1  0
 26 18  1  0
 26 19  1  0
 27 10  1  0
 28 12  1  0
 16 29  1  0
 17 30  1  0
 31 18  2  0
 32 20  2  0
 33 20  1  0
 19 34  1  1
 34 21  1  0
M  END
>  <ALOGPS_LOGP>  (4) 
-0.69

>  <ALOGPS_LOGS>  (4) 
-3.69

>  <ALOGPS_SOLUBILITY>  (4) 
1.01e-01 g/l

>  <DATABASE_NAME>  (4) 
drugbank

>  <DRUGBANK_ID>  (4) 
DB13816

>  <DRUG_GROUPS>  (4) 
experimental

>  <EXACT_MASS>  (4) 
493.163119403

>  <FORMULA>  (4) 
C21H27N5O7S

>  <GENERIC_NAME>  (4) 
Aspoxicillin

>  <ID>  (4) 


>  <INCHI_IDENTIFIER>  (4) 
InChI=1S/C21H27N5O7S/c1-21(2)15(20(32)33)26-18(31)14(19(26)34-21)25-17(30)13(9-4-6-10(27)7-5-9)24-16(29)11(22)8-12(28)23-3/h4-7,11,13-15,19,27H,8,22H2,1-3H3,(H,23,28)(H,24,29)(H,25,30)(H,32,33)/t11-,13-,14-,15+,19-/m1/s1

>  <INCHI_KEY>  (4) 
BHELIUBJHYAEDK-OAIUPTLZSA-N

>  <INTERNATIONAL_BRANDS>  (4) 
nan

>  <JCHEM_ACCEPTOR_COUNT>  (4) 
11

>  <JCHEM_ATOM_COUNT>  (4) 
61

>  <JCHEM_AVERAGE_POLARIZABILITY>  (4) 
47.585705276343795

>  <JCHEM_BIOAVAILABILITY>  (4) 
0

>  <JCHEM_DONOR_COUNT>  (4) 
6

>  <JCHEM_FORMAL_CHARGE>  (4) 
0

>  <JCHEM_GHOSE_FILTER>  (4) 
0

>  <JCHEM_IUPAC>  (4) 
(2S,5R,6R)-6-{[(2R)-2-{[(2R)-2-amino-1-hydroxy-3-(methyl-C-hydroxycarbonimidoyl)propylidene]amino}-1-hydroxy-2-(4-hydroxyphenyl)ethylidene]amino}-3,3-dimethyl-7-oxo-4-thia-1-azabicyclo[3.2.0]heptane-2-carboxylic acid

>  <JCHEM_LOGP>  (4) 
-3.8619325567704075

>  <JCHEM_MDDR_LIKE_RULE>  (4) 
1

>  <JCHEM_NUMBER_OF_RINGS>  (4) 
3

>  <JCHEM_PHYSIOLOGICAL_CHARGE>  (4) 
0

>  <JCHEM_PKA>  (4) 
3.084309372284967

>  <JCHEM_PKA_STRONGEST_ACIDIC>  (4) 
2.5271902276780693

>  <JCHEM_PKA_STRONGEST_BASIC>  (4) 
9.910512150742184

>  <JCHEM_POLAR_SURFACE_AREA>  (4) 
201.62999999999997

>  <JCHEM_REFRACTIVITY>  (4) 
121.12119999999997

>  <JCHEM_ROTATABLE_BOND_COUNT>  (4) 
8

>  <JCHEM_RULE_OF_FIVE>  (4) 
0

>  <JCHEM_TRADITIONAL_IUPAC>  (4) 
aspoxicillin

>  <JCHEM_VEBER_RULE>  (4) 
0

>  <MOLECULAR_WEIGHT>  (4) 
493.54

>  <PRODUCTS>  (4) 
nan

>  <SALTS>  (4) 
nan

>  <SECONDARY_ACCESSION_NUMBERS>  (4) 
nan

>  <SMILES>  (4) 
[H][C@@](N)(CC(O)=NC)C(O)=N[C@@]([H])(C(O)=N[C@]1([H])C(=O)N2[C@]1([H])SC(C)(C)[C@]2([H])C(O)=O)C1=CC=C(O)C=C1

>  <SYNONYMS>  (4) 
nan

>  <ECFP_FP>  (4) 
<rdkit.DataStructs.cDataStructs.ExplicitBitVect object at 0xa26ce85d0>

>  <pki_G>  (4) 
6.144811

>  <pki_D>  (4) 
6.332508

>  <pki_B>  (4) 
5.462618

>  <pki_A>  (4) 
5.291682

>  <SelB>  (4) 
0.682193

>  <SelA>  (4) 
0.853129

>  <SelD>  (4) 
-0.187697

>  <AvgABSel>  (4) 
0.767661

>  <MACCS_FP>  (4) 
[0. 0. 0. 0. 0. 0. 0. 0. 1. 0. 0. 1. 0. 0. 0. 0. 0. 0. 0. 1. 0. 0. 0. 0.
 0. 0. 0. 0. 0. 0. 0. 0. 0. 0. 0. 0. 1. 0. 0. 0. 0. 0. 0. 0. 0. 0. 0. 1.
 0. 0. 0. 0. 0. 1. 1. 0. 0. 0. 0. 0. 0. 0. 0. 0. 0. 0. 1. 0. 0. 0. 0. 0.
 0. 0. 1. 0. 0. 0. 1. 1. 1. 1. 0. 1. 1. 1. 0. 0. 1. 0. 1. 0. 1. 1. 0. 1.
 1. 1. 0. 0. 0. 0. 0. 0. 1. 1. 0. 0. 0. 0. 1. 1. 1. 1. 0. 0. 1. 1. 0. 1.
 1. 1. 1. 1. 0. 0. 0. 1. 0. 0. 0. 1. 1. 1. 0. 0. 1. 1. 0. 1. 1. 1. 1. 1.
 0. 0. 1. 0. 1. 1. 1. 1. 1. 0. 1. 1. 1. 1. 1. 1. 1. 1. 1. 1. 1. 1. 0.]

>  <MACCS_pki_G>  (4) 
5.974498

>  <MACCS_pki_D>  (4) 
5.919702

>  <MACCS_pki_B>  (4) 
5.635898

>  <MACCS_pki_A>  (4) 
5.87656

>  <MACCS_SelB>  (4) 
0.338599

>  <MACCS_SelA>  (4) 
0.097938

>  <MACCS_SelD>  (4) 
0.054795

>  <MACCSAvgABSel>  (4) 
0.218268

>  <Pharm2D_FP>  (4) 
[0. 0. 0. ... 0. 0. 0.]

>  <Pharm2D_pki_G>  (4) 
6.585973

>  <Pharm2D_pki_D>  (4) 
5.894597

>  <Pharm2D_pki_B>  (4) 
5.991257

>  <Pharm2D_pki_A>  (4) 
5.638058

>  <Pharm2D_SelB>  (4) 
0.594716

>  <Pharm2D_SelA>  (4) 
0.947916

>  <Pharm2D_SelD>  (4) 
0.691376

>  <Pharm2DAvgABSel>  (4) 
0.771316

>  <QED>  (4) 
0.17447

$$$$
DB04853
     RDKit          2D

 28 31  0  0  1  0  0  0  0  0999 V2000
    7.9191    0.7358    0.0000 O   0  0  0  0  0  0  0  0  0  0  0  0
    9.8546   -0.1650    0.0000 O   0  0  0  0  0  0  0  0  0  0  0  0
    9.8576    1.6299    0.0000 O   0  0  0  0  0  0  0  0  0  0  0  0
    8.7047    2.7996    0.0000 O   0  0  0  0  0  0  0  0  0  0  0  0
    8.1466   -0.7167    0.0000 N   0  0  0  0  0  0  0  0  0  0  0  0
    8.1466   -2.0446    0.0000 N   0  0  0  0  0  0  0  0  0  0  0  0
    6.6515   -0.5556    0.0000 N   0  0  0  0  0  0  0  0  0  0  0  0
    4.5080   -0.9681    0.0000 N   0  0  0  0  0  0  0  0  0  0  0  0
    5.2224   -0.5556    0.0000 N   0  0  0  0  0  0  0  0  0  0  0  0
    5.9370   -1.7931    0.0000 N   0  0  0  0  0  0  0  0  0  0  0  0
    6.6515   -3.0306    0.0000 N   0  0  0  0  0  0  0  0  0  0  0  0
    9.1880    0.3211    0.0000 C   0  0  0  0  0  0  0  0  0  0  0  0
    8.4029    0.0675    0.0000 C   0  0  0  0  0  0  0  0  0  0  0  0
    9.1894    1.1461    0.0000 C   0  0  0  0  0  0  0  0  0  0  0  0
    8.4052    1.4024    0.0000 C   0  0  0  0  0  0  0  0  0  0  0  0
    3.0791   -0.9681    0.0000 C   0  0  0  0  0  0  0  0  0  0  0  0
    2.3645   -0.5556    0.0000 C   0  0  0  0  0  0  0  0  0  0  0  0
    3.0791   -1.7931    0.0000 C   0  0  0  0  0  0  0  0  0  0  0  0
    1.6500   -0.9681    0.0000 C   0  0  0  0  0  0  0  0  0  0  0  0
    2.3645   -2.2056    0.0000 C   0  0  0  0  0  0  0  0  0  0  0  0
    1.6500   -1.7931    0.0000 C   0  0  0  0  0  0  0  0  0  0  0  0
    8.1516    2.1875    0.0000 C   0  0  0  0  0  0  0  0  0  0  0  0
    7.3659   -0.9681    0.0000 C   0  0  0  0  0  0  0  0  0  0  0  0
    8.6280   -1.3806    0.0000 C   0  0  0  0  0  0  0  0  0  0  0  0
    3.7935   -0.5556    0.0000 C   0  0  0  0  0  0  0  0  0  0  0  0
    7.3659   -1.7931    0.0000 C   0  0  0  0  0  0  0  0  0  0  0  0
    6.6515   -2.2056    0.0000 C   0  0  0  0  0  0  0  0  0  0  0  0
    5.9370   -0.9681    0.0000 C   0  0  0  0  0  0  0  0  0  0  0  0
  1 13  1  0
  1 15  1  0
 12  2  1  1
 14  3  1  1
  4 22  1  0
 13  5  1  6
  5 23  1  0
  5 24  1  0
  6 24  2  0
  6 26  1  0
  7 23  1  0
  7 28  2  0
  8  9  1  0
  8 25  2  0
  9 28  1  0
 10 27  2  0
 10 28  1  0
 11 27  1  0
 12 13  1  0
 12 14  1  0
 14 15  1  0
 15 22  1  6
 16 17  1  0
 16 18  1  0
 16 25  1  0
 17 19  1  0
 18 20  1  0
 19 21  1  0
 20 21  1  0
 23 26  2  0
 26 27  1  0
M  END
>  <ALOGPS_LOGP>  (5) 
1.41

>  <ALOGPS_LOGS>  (5) 
-2.54

>  <ALOGPS_SOLUBILITY>  (5) 
1.14e+00 g/l

>  <DATABASE_NAME>  (5) 
drugbank

>  <DRUGBANK_ID>  (5) 
DB04853

>  <DRUG_GROUPS>  (5) 
investigational

>  <EXACT_MASS>  (5) 
391.196802323

>  <FORMULA>  (5) 
C17H25N7O4

>  <GENERIC_NAME>  (5) 
Binodenoson

>  <ID>  (5) 


>  <INCHI_IDENTIFIER>  (5) 
InChI=1S/C17H25N7O4/c18-14-11-15(22-17(21-14)23-20-6-9-4-2-1-3-5-9)24(8-19-11)16-13(27)12(26)10(7-25)28-16/h6,8-10,12-13,16,25-27H,1-5,7H2,(H3,18,21,22,23)/b20-6+/t10-,12-,13-,16-/m1/s1

>  <INCHI_KEY>  (5) 
XJFMHMFFBSOEPR-DNZQAUTHSA-N

>  <INTERNATIONAL_BRANDS>  (5) 
nan

>  <JCHEM_ACCEPTOR_COUNT>  (5) 
10

>  <JCHEM_ATOM_COUNT>  (5) 
nan

>  <JCHEM_AVERAGE_POLARIZABILITY>  (5) 
40.9924824247975

>  <JCHEM_BIOAVAILABILITY>  (5) 
1

>  <JCHEM_DONOR_COUNT>  (5) 
5

>  <JCHEM_FORMAL_CHARGE>  (5) 
0

>  <JCHEM_GHOSE_FILTER>  (5) 
1

>  <JCHEM_IUPAC>  (5) 
(2R,3R,4S,5R)-2-{6-amino-2-[(E)-2-(cyclohexylmethylidene)hydrazin-1-yl]-9H-purin-9-yl}-5-(hydroxymethyl)oxolane-3,4-diol

>  <JCHEM_LOGP>  (5) 
0.4609811766666674

>  <JCHEM_MDDR_LIKE_RULE>  (5) 
0

>  <JCHEM_NUMBER_OF_RINGS>  (5) 
4

>  <JCHEM_PHYSIOLOGICAL_CHARGE>  (5) 
0

>  <JCHEM_PKA>  (5) 
12.468773492919677

>  <JCHEM_PKA_STRONGEST_ACIDIC>  (5) 
10.994209227406717

>  <JCHEM_PKA_STRONGEST_BASIC>  (5) 
4.336123749344417

>  <JCHEM_POLAR_SURFACE_AREA>  (5) 
163.93

>  <JCHEM_REFRACTIVITY>  (5) 
101.74180000000001

>  <JCHEM_ROTATABLE_BOND_COUNT>  (5) 
5

>  <JCHEM_RULE_OF_FIVE>  (5) 
1

>  <JCHEM_TRADITIONAL_IUPAC>  (5) 
binodenoson

>  <JCHEM_VEBER_RULE>  (5) 
0

>  <MOLECULAR_WEIGHT>  (5) 
391.4249

>  <PRODUCTS>  (5) 
nan

>  <SALTS>  (5) 
nan

>  <SECONDARY_ACCESSION_NUMBERS>  (5) 
nan

>  <SMILES>  (5) 
OC[C@H]1O[C@H]([C@H](O)[C@@H]1O)N1C=NC2=C(N)N=C(N\N=C\C3CCCCC3)N=C12

>  <SYNONYMS>  (5) 
2-((Cyclohexylmethylene)hydrazino)adenosine; Binodenoson

>  <ECFP_FP>  (5) 
<rdkit.DataStructs.cDataStructs.ExplicitBitVect object at 0xa269b9800>

>  <pki_G>  (5) 
6.057062

>  <pki_D>  (5) 
6.698966

>  <pki_B>  (5) 
5.465837

>  <pki_A>  (5) 
5.577478

>  <SelB>  (5) 
0.591226

>  <SelA>  (5) 
0.479584

>  <SelD>  (5) 
-0.641904

>  <AvgABSel>  (5) 
0.535405

>  <MACCS_FP>  (5) 
[0. 0. 0. 0. 0. 0. 0. 0. 0. 0. 0. 0. 0. 0. 0. 0. 0. 0. 0. 0. 0. 0. 0. 0.
 0. 1. 0. 0. 0. 0. 0. 0. 0. 0. 0. 0. 0. 0. 1. 0. 0. 0. 0. 0. 0. 0. 0. 0.
 0. 0. 0. 0. 1. 1. 1. 0. 0. 1. 0. 0. 0. 0. 1. 0. 0. 1. 0. 0. 0. 1. 0. 0.
 1. 0. 0. 1. 0. 1. 1. 1. 1. 0. 1. 1. 1. 1. 0. 0. 0. 1. 1. 1. 1. 0. 1. 1.
 1. 1. 1. 0. 0. 1. 0. 0. 0. 1. 1. 0. 0. 1. 1. 0. 0. 0. 0. 0. 0. 1. 1. 1.
 1. 1. 1. 0. 1. 1. 0. 1. 1. 1. 0. 1. 1. 1. 0. 1. 0. 1. 0. 1. 1. 0. 1. 1.
 0. 1. 1. 1. 1. 0. 1. 1. 1. 1. 0. 1. 1. 1. 1. 1. 0. 1. 1. 1. 1. 1. 0.]

>  <MACCS_pki_G>  (5) 
6.602273

>  <MACCS_pki_D>  (5) 
5.914744

>  <MACCS_pki_B>  (5) 
5.76428

>  <MACCS_pki_A>  (5) 
5.774714

>  <MACCS_SelB>  (5) 
0.837993

>  <MACCS_SelA>  (5) 
0.827559

>  <MACCS_SelD>  (5) 
0.687529

>  <MACCSAvgABSel>  (5) 
0.832776

>  <Pharm2D_FP>  (5) 
[0. 0. 0. ... 0. 0. 0.]

>  <Pharm2D_pki_G>  (5) 
6.264564

>  <Pharm2D_pki_D>  (5) 
6.356747

>  <Pharm2D_pki_B>  (5) 
5.876719

>  <Pharm2D_pki_A>  (5) 
5.793123

>  <Pharm2D_SelB>  (5) 
0.387845

>  <Pharm2D_SelA>  (5) 
0.471441

>  <Pharm2D_SelD>  (5) 
-0.092183

>  <Pharm2DAvgABSel>  (5) 
0.429643

>  <QED>  (5) 
0.348323

$$$$
DB02075
     RDKit          2D

 23 25  0  0  1  0  0  0  0  0999 V2000
    1.2949    0.4125    0.0000 C   0  0  0  0  0  0  0  0  0  0  0  0
    1.7798    3.9841    0.0000 C   0  0  0  0  0  0  0  0  0  0  0  0
    3.9934    0.8250    0.0000 C   0  0  0  0  0  0  0  0  0  0  0  0
    1.7798    1.0799    0.0000 C   0  0  0  0  0  0  0  0  0  0  0  0
    1.5249    3.1994    0.0000 C   0  0  0  0  0  0  0  0  0  0  0  0
    2.5645    0.8250    0.0000 C   0  0  0  0  0  0  0  0  0  0  0  0
    1.5249    1.8646    0.0000 C   0  0  0  0  0  0  0  0  0  0  0  0
    2.5645    0.0000    0.0000 C   0  0  0  0  0  0  0  0  0  0  0  0
    0.7403    2.9445    0.0000 C   0  0  0  0  0  0  0  0  0  0  0  0
    0.7403    2.1195    0.0000 C   0  0  0  0  0  0  0  0  0  0  0  0
    3.2789   -0.4125    0.0000 C   0  0  0  0  0  0  0  0  0  0  0  0
    1.7798   -0.2549    0.0000 N   0  0  0  0  0  0  0  0  0  0  0  0
    3.2789    1.2375    0.0000 N   0  0  0  0  0  0  0  0  0  0  0  0
    3.9934    0.0000    0.0000 N   0  0  0  0  0  0  0  0  0  0  0  0
    2.0098    2.5320    0.0000 N   0  0  0  0  0  0  0  0  0  0  0  0
    0.0728    3.4294    0.0000 O   0  0  0  0  0  0  0  0  0  0  0  0
    0.0728    1.6346    0.0000 O   0  0  0  0  0  0  0  0  0  0  0  0
    3.2789   -1.2375    0.0000 O   0  0  0  0  0  0  0  0  0  0  0  0
    3.0967    5.7248    0.0000 O   0  0  0  0  0  0  0  0  0  0  0  0
    3.6264    4.6853    0.0000 O   0  0  0  0  0  0  0  0  0  0  0  0
    2.0571    5.1951    0.0000 O   0  0  0  0  0  0  0  0  0  0  0  0
    2.5868    4.1556    0.0000 O   0  0  0  0  0  0  0  0  0  0  0  0
    2.8417    4.9402    0.0000 P   0  0  0  0  0  0  0  0  0  0  0  0
  4  1  2  0
  5  2  1  1
  6  4  1  0
  7  4  1  1
  8  6  2  0
  9  5  1  0
 10  7  1  0
 10  9  1  0
 11  8  1  0
 12  1  1  0
 12  8  1  0
 13  3  2  0
 13  6  1  0
 14  3  1  0
 14 11  2  0
 15  5  1  0
 15  7  1  0
  9 16  1  6
 10 17  1  6
 18 11  1  0
 22  2  1  0
 23 19  1  0
 23 20  1  0
 23 21  2  0
 23 22  1  0
M  END
>  <ALOGPS_LOGP>  (6) 
-1.78

>  <ALOGPS_LOGS>  (6) 
-1.69

>  <ALOGPS_SOLUBILITY>  (6) 
6.99e+00 g/l

>  <DATABASE_NAME>  (6) 
drugbank

>  <DRUGBANK_ID>  (6) 
DB02075

>  <DRUG_GROUPS>  (6) 
experimental

>  <EXACT_MASS>  (6) 
346.067835366

>  <FORMULA>  (6) 
C11H15N4O7P

>  <GENERIC_NAME>  (6) 
(1s)-1(9-Deazahypoxanthin-9yl)1,4-Dideoxy-1,4-Imino-D-Ribitol-5-Phosphate

>  <ID>  (6) 


>  <INCHI_IDENTIFIER>  (6) 
InChI=1S/C11H15N4O7P/c16-9-5(2-22-23(19,20)21)15-7(10(9)17)4-1-12-8-6(4)13-3-14-11(8)18/h1,3,5,7,9-10,12,15-17H,2H2,(H,13,14,18)(H2,19,20,21)/t5-,7+,9-,10+/m1/s1

>  <INCHI_KEY>  (6) 
VJTAXXUIRYOXBT-KUBHLMPHSA-N

>  <INTERNATIONAL_BRANDS>  (6) 
nan

>  <JCHEM_ACCEPTOR_COUNT>  (6) 
9

>  <JCHEM_ATOM_COUNT>  (6) 
nan

>  <JCHEM_AVERAGE_POLARIZABILITY>  (6) 
30.34328357176007

>  <JCHEM_BIOAVAILABILITY>  (6) 
1

>  <JCHEM_DONOR_COUNT>  (6) 
7

>  <JCHEM_FORMAL_CHARGE>  (6) 
0

>  <JCHEM_GHOSE_FILTER>  (6) 
0

>  <JCHEM_IUPAC>  (6) 
{[(2R,3R,4S,5S)-3,4-dihydroxy-5-{4-hydroxy-5H-pyrrolo[3,2-d]pyrimidin-7-yl}pyrrolidin-2-yl]methoxy}phosphonic acid

>  <JCHEM_LOGP>  (6) 
-2.9642524778680825

>  <JCHEM_MDDR_LIKE_RULE>  (6) 
0

>  <JCHEM_NUMBER_OF_RINGS>  (6) 
3

>  <JCHEM_PHYSIOLOGICAL_CHARGE>  (6) 
-1

>  <JCHEM_PKA>  (6) 
1.6209024709761906

>  <JCHEM_PKA_STRONGEST_ACIDIC>  (6) 
0.8952734877972741

>  <JCHEM_PKA_STRONGEST_BASIC>  (6) 
9.135037137747078

>  <JCHEM_POLAR_SURFACE_AREA>  (6) 
181.04999999999998

>  <JCHEM_REFRACTIVITY>  (6) 
75.4408

>  <JCHEM_ROTATABLE_BOND_COUNT>  (6) 
4

>  <JCHEM_RULE_OF_FIVE>  (6) 
0

>  <JCHEM_TRADITIONAL_IUPAC>  (6) 
[(2R,3R,4S,5S)-3,4-dihydroxy-5-{4-hydroxy-5H-pyrrolo[3,2-d]pyrimidin-7-yl}pyrrolidin-2-yl]methoxyphosphonic acid

>  <JCHEM_VEBER_RULE>  (6) 
0

>  <MOLECULAR_WEIGHT>  (6) 
346.2332

>  <PRODUCTS>  (6) 
nan

>  <SALTS>  (6) 
nan

>  <SECONDARY_ACCESSION_NUMBERS>  (6) 
EXPT01929

>  <SMILES>  (6) 
[H][C@]1(COP(O)(O)=O)N[C@@]([H])(C2=CNC3=C2N=CN=C3O)[C@]([H])(O)[C@]1([H])O

>  <SYNONYMS>  (6) 
nan

>  <ECFP_FP>  (6) 
<rdkit.DataStructs.cDataStructs.ExplicitBitVect object at 0xa266f2df0>

>  <pki_G>  (6) 
5.99075

>  <pki_D>  (6) 
6.805012

>  <pki_B>  (6) 
5.657998

>  <pki_A>  (6) 
5.233527

>  <SelB>  (6) 
0.332752

>  <SelA>  (6) 
0.757224

>  <SelD>  (6) 
-0.814262

>  <AvgABSel>  (6) 
0.544988

>  <MACCS_FP>  (6) 
[0. 0. 0. 0. 0. 0. 0. 0. 0. 0. 0. 0. 0. 0. 0. 0. 0. 0. 0. 0. 0. 0. 0. 0.
 0. 0. 0. 0. 0. 1. 0. 0. 0. 0. 0. 0. 0. 0. 0. 0. 0. 0. 0. 1. 0. 0. 0. 0.
 1. 0. 0. 0. 0. 1. 1. 0. 0. 0. 0. 0. 0. 0. 1. 0. 0. 1. 0. 0. 0. 1. 0. 0.
 1. 0. 0. 0. 0. 1. 0. 1. 1. 0. 0. 1. 0. 0. 0. 0. 0. 1. 1. 1. 1. 0. 0. 1.
 1. 1. 1. 0. 0. 1. 1. 0. 1. 1. 1. 0. 0. 1. 1. 1. 1. 1. 0. 0. 0. 1. 0. 0.
 1. 1. 0. 0. 1. 1. 1. 1. 0. 0. 1. 1. 0. 0. 0. 0. 0. 1. 0. 1. 1. 0. 1. 1.
 0. 0. 1. 0. 1. 0. 1. 1. 1. 1. 0. 1. 1. 1. 1. 1. 0. 1. 1. 1. 1. 1. 0.]

>  <MACCS_pki_G>  (6) 
6.730772

>  <MACCS_pki_D>  (6) 
6.143855

>  <MACCS_pki_B>  (6) 
6.02635

>  <MACCS_pki_A>  (6) 
5.711976

>  <MACCS_SelB>  (6) 
0.704422

>  <MACCS_SelA>  (6) 
1.018796

>  <MACCS_SelD>  (6) 
0.586917

>  <MACCSAvgABSel>  (6) 
0.861609

>  <Pharm2D_FP>  (6) 
[0. 0. 0. ... 0. 0. 0.]

>  <Pharm2D_pki_G>  (6) 
6.28526

>  <Pharm2D_pki_D>  (6) 
6.850926

>  <Pharm2D_pki_B>  (6) 
5.646482

>  <Pharm2D_pki_A>  (6) 
5.633417

>  <Pharm2D_SelB>  (6) 
0.638779

>  <Pharm2D_SelA>  (6) 
0.651844

>  <Pharm2D_SelD>  (6) 
-0.565666

>  <Pharm2DAvgABSel>  (6) 
0.645311

>  <QED>  (6) 
0.322024

$$$$
DB04060
     RDKit          2D

 20 21  0  0  1  0  0  0  0  0999 V2000
   -0.6110   -1.8216    0.0000 C   0  0  0  0  0  0  0  0  0  0  0  0
   -0.7604   -0.4005    0.0000 C   0  0  0  0  0  0  0  0  0  0  0  0
   -0.6548    1.8053    0.0000 C   0  0  0  0  0  0  0  0  0  0  0  0
    0.3957    0.4394    0.0000 C   0  0  0  0  0  0  0  0  0  0  0  0
   -2.7743    2.0602    0.0000 C   0  0  0  0  0  0  0  0  0  0  0  0
   -0.2754   -1.0679    0.0000 C   0  0  0  0  0  0  0  0  0  0  0  0
   -0.4248    0.3532    0.0000 C   0  0  0  0  0  0  0  0  0  0  0  0
   -1.3222    2.2902    0.0000 C   0  0  0  0  0  0  0  0  0  0  0  0
   -0.9097    1.0206    0.0000 C   0  0  0  0  0  0  0  0  0  0  0  0
   -1.9897    1.8053    0.0000 C   0  0  0  0  0  0  0  0  0  0  0  0
    0.5450   -0.9817    0.0000 C   0  0  0  0  0  0  0  0  0  0  0  0
    0.8806   -0.2280    0.0000 N   0  0  0  0  0  0  0  0  0  0  0  0
   -1.3222    3.1152    0.0000 O   0  0  0  0  0  0  0  0  0  0  0  0
    1.0300   -1.6491    0.0000 O   0  0  0  0  0  0  0  0  0  0  0  0
   -4.5151    3.3770    0.0000 O   0  0  0  0  0  0  0  0  0  0  0  0
   -3.4755    3.9067    0.0000 O   0  0  0  0  0  0  0  0  0  0  0  0
   -3.9854    2.3375    0.0000 O   0  0  0  0  0  0  0  0  0  0  0  0
   -2.9458    2.8672    0.0000 O   0  0  0  0  0  0  0  0  0  0  0  0
   -1.7347    1.0206    0.0000 O   0  0  0  0  0  0  0  0  0  0  0  0
   -3.7304    3.1221    0.0000 P   0  0  0  0  0  0  0  0  0  0  0  0
  6  1  1  0
  6  2  2  0
  7  2  1  0
  7  4  2  0
  8  3  1  0
  9  3  1  0
  9  7  1  6
 10  5  1  6
 10  8  1  0
 11  6  1  0
 12  4  1  0
 12 11  2  0
  8 13  1  1
 14 11  1  0
 18  5  1  0
 19  9  1  0
 19 10  1  0
 20 15  1  0
 20 16  1  0
 20 17  2  0
 20 18  1  0
M  END
>  <ALOGPS_LOGP>  (7) 
-0.82

>  <ALOGPS_LOGS>  (7) 
-1.58

>  <ALOGPS_SOLUBILITY>  (7) 
7.94e+00 g/l

>  <DATABASE_NAME>  (7) 
drugbank

>  <DRUGBANK_ID>  (7) 
DB04060

>  <DRUG_GROUPS>  (7) 
experimental

>  <EXACT_MASS>  (7) 
305.066438383

>  <FORMULA>  (7) 
C11H16NO7P

>  <GENERIC_NAME>  (7) 
(5-Methyl-6-Oxo-1,6-Dihydro-Pyridin-3-Yl)-1,2-Dideoxy-Ribofuranose-5-Monophosphate

>  <ID>  (7) 


>  <INCHI_IDENTIFIER>  (7) 
InChI=1S/C11H16NO7P/c1-6-2-7(4-12-11(6)14)9-3-8(13)10(19-9)5-18-20(15,16)17/h2,4,8-10,13H,3,5H2,1H3,(H,12,14)(H2,15,16,17)/t8-,9+,10+/m0/s1

>  <INCHI_KEY>  (7) 
MUWYCJQCZPFLFI-IVZWLZJFSA-N

>  <INTERNATIONAL_BRANDS>  (7) 
nan

>  <JCHEM_ACCEPTOR_COUNT>  (7) 
7

>  <JCHEM_ATOM_COUNT>  (7) 
nan

>  <JCHEM_AVERAGE_POLARIZABILITY>  (7) 
28.059246838267008

>  <JCHEM_BIOAVAILABILITY>  (7) 
1

>  <JCHEM_DONOR_COUNT>  (7) 
4

>  <JCHEM_FORMAL_CHARGE>  (7) 
0

>  <JCHEM_GHOSE_FILTER>  (7) 
0

>  <JCHEM_IUPAC>  (7) 
{[(2R,3S,5R)-3-hydroxy-5-(6-hydroxy-5-methylpyridin-3-yl)oxolan-2-yl]methoxy}phosphonic acid

>  <JCHEM_LOGP>  (7) 
-1.3927083585968756

>  <JCHEM_MDDR_LIKE_RULE>  (7) 
0

>  <JCHEM_NUMBER_OF_RINGS>  (7) 
2

>  <JCHEM_PHYSIOLOGICAL_CHARGE>  (7) 
-2

>  <JCHEM_PKA>  (7) 
6.262257213227764

>  <JCHEM_PKA_STRONGEST_ACIDIC>  (7) 
1.213881826880589

>  <JCHEM_PKA_STRONGEST_BASIC>  (7) 
2.533426992047936

>  <JCHEM_POLAR_SURFACE_AREA>  (7) 
129.34000000000003

>  <JCHEM_REFRACTIVITY>  (7) 
68.16829999999999

>  <JCHEM_ROTATABLE_BOND_COUNT>  (7) 
4

>  <JCHEM_RULE_OF_FIVE>  (7) 
1

>  <JCHEM_TRADITIONAL_IUPAC>  (7) 
[(2R,3S,5R)-3-hydroxy-5-(6-hydroxy-5-methylpyridin-3-yl)oxolan-2-yl]methoxyphosphonic acid

>  <JCHEM_VEBER_RULE>  (7) 
0

>  <MOLECULAR_WEIGHT>  (7) 
305.221

>  <PRODUCTS>  (7) 
nan

>  <SALTS>  (7) 
nan

>  <SECONDARY_ACCESSION_NUMBERS>  (7) 
EXPT02250

>  <SMILES>  (7) 
[H][C@]1(O)C[C@@]([H])(O[C@]1([H])COP(O)(O)=O)C1=CN=C(O)C(C)=C1

>  <SYNONYMS>  (7) 
nan

>  <ECFP_FP>  (7) 
<rdkit.DataStructs.cDataStructs.ExplicitBitVect object at 0xa2693d030>

>  <pki_G>  (7) 
5.968526

>  <pki_D>  (7) 
5.688443

>  <pki_B>  (7) 
5.369989

>  <pki_A>  (7) 
5.116537

>  <SelB>  (7) 
0.598537

>  <SelA>  (7) 
0.85199

>  <SelD>  (7) 
0.280083

>  <AvgABSel>  (7) 
0.725263

>  <MACCS_FP>  (7) 
[0. 0. 0. 0. 0. 0. 0. 0. 0. 0. 0. 0. 0. 0. 0. 0. 0. 0. 0. 0. 0. 0. 0. 0.
 0. 0. 0. 0. 0. 1. 0. 0. 0. 0. 0. 0. 0. 0. 0. 0. 0. 0. 0. 1. 0. 0. 0. 0.
 1. 0. 0. 0. 0. 0. 0. 0. 0. 1. 0. 0. 0. 0. 1. 0. 0. 1. 0. 0. 0. 1. 0. 0.
 1. 0. 0. 0. 0. 0. 0. 0. 0. 0. 0. 1. 0. 0. 0. 0. 0. 1. 1. 0. 1. 0. 0. 0.
 1. 1. 1. 0. 0. 0. 1. 0. 1. 0. 1. 0. 0. 1. 1. 0. 1. 1. 0. 0. 0. 1. 0. 0.
 1. 1. 0. 0. 1. 0. 1. 1. 1. 1. 1. 1. 1. 0. 0. 0. 0. 1. 0. 1. 1. 0. 0. 1.
 1. 0. 1. 0. 1. 0. 1. 0. 1. 1. 0. 1. 1. 1. 0. 1. 1. 1. 1. 1. 1. 1. 0.]

>  <MACCS_pki_G>  (7) 
6.501404

>  <MACCS_pki_D>  (7) 
5.680667

>  <MACCS_pki_B>  (7) 
5.866684

>  <MACCS_pki_A>  (7) 
5.565179

>  <MACCS_SelB>  (7) 
0.634719

>  <MACCS_SelA>  (7) 
0.936224

>  <MACCS_SelD>  (7) 
0.820737

>  <MACCSAvgABSel>  (7) 
0.785472

>  <Pharm2D_FP>  (7) 
[0. 0. 0. ... 0. 0. 0.]

>  <Pharm2D_pki_G>  (7) 
5.923295

>  <Pharm2D_pki_D>  (7) 
5.678852

>  <Pharm2D_pki_B>  (7) 
5.467569

>  <Pharm2D_pki_A>  (7) 
5.312112

>  <Pharm2D_SelB>  (7) 
0.455725

>  <Pharm2D_SelA>  (7) 
0.611183

>  <Pharm2D_SelD>  (7) 
0.244443

>  <Pharm2DAvgABSel>  (7) 
0.533454

>  <QED>  (7) 
0.588039

$$$$
DB13274
     RDKit          2D

 32 34  0  0  1  0  0  0  0  0999 V2000
    4.4710   -0.6055    0.0000 C   0  0  0  0  0  0  0  0  0  0  0  0
    5.0013   -1.2375    0.0000 C   0  0  0  0  0  0  0  0  0  0  0  0
    5.7158   -1.6500    0.0000 C   0  0  0  0  0  0  0  0  0  0  0  0
    5.7158   -2.4750    0.0000 O   0  0  0  0  0  0  0  0  0  0  0  0
    5.0013   -2.8875    0.0000 C   0  0  0  0  0  0  0  0  0  0  0  0
    4.2868   -2.4750    0.0000 C   0  0  0  0  0  0  0  0  0  0  0  0
    4.2868   -1.6500    0.0000 C   0  0  0  0  0  0  0  0  0  0  0  0
    3.5724   -1.2375    0.0000 N   0  0  0  0  0  0  0  0  0  0  0  0
    3.5724   -0.4125    0.0000 C   0  0  0  0  0  0  0  0  0  0  0  0
    3.5724   -2.8875    0.0000 O   0  0  0  0  0  0  0  0  0  0  0  0
    5.0013   -3.7125    0.0000 O   0  0  0  0  0  0  0  0  0  0  0  0
    5.7158   -4.1250    0.0000 C   0  0  0  0  0  0  0  0  0  0  0  0
    6.4302   -3.7125    0.0000 C   0  0  0  0  0  0  0  0  0  0  0  0
    7.1447   -4.1250    0.0000 C   0  0  0  0  0  0  0  0  0  0  0  0
    7.1447   -4.9500    0.0000 C   0  0  0  0  0  0  0  0  0  0  0  0
    6.4302   -5.3625    0.0000 C   0  0  0  0  0  0  0  0  0  0  0  0
    5.7158   -4.9500    0.0000 C   0  0  0  0  0  0  0  0  0  0  0  0
    5.0013   -5.3625    0.0000 O   0  0  0  0  0  0  0  0  0  0  0  0
    6.4302   -6.1875    0.0000 O   0  0  0  0  0  0  0  0  0  0  0  0
    5.7158   -6.6000    0.0000 C   0  0  0  0  0  0  0  0  0  0  0  0
    5.7158   -7.4250    0.0000 C   0  0  0  0  0  0  0  0  0  0  0  0
    5.0013   -7.8375    0.0000 C   0  0  0  0  0  0  0  0  0  0  0  0
    4.2868   -7.4250    0.0000 C   0  0  0  0  0  0  0  0  0  0  0  0
    4.2868   -6.6000    0.0000 C   0  0  0  0  0  0  0  0  0  0  0  0
    5.0013   -6.1875    0.0000 O   0  0  0  0  0  0  0  0  0  0  0  0
    3.5724   -6.1875    0.0000 C   0  0  0  0  0  0  0  0  0  0  0  0
    3.5724   -5.3625    0.0000 N   0  0  0  0  0  0  0  0  0  0  0  0
    4.2868   -4.9500    0.0000 C   0  0  0  0  0  0  0  0  0  0  0  0
    6.4302   -7.8375    0.0000 N   0  0  0  0  0  0  0  0  0  0  0  0
    7.8592   -5.3625    0.0000 N   0  0  0  0  0  0  0  0  0  0  0  0
    6.4302   -2.8875    0.0000 N   0  0  0  0  0  0  0  0  0  0  0  0
    5.5316   -0.6055    0.0000 O   0  0  0  0  0  0  0  0  0  0  0  0
  2  1  1  6
  2  3  1  0
  3  4  1  0
  4  5  1  0
  5  6  1  0
  6  7  1  0
  2  7  1  0
  7  8  1  1
  8  9  1  0
  6 10  1  6
  5 11  1  6
 12 11  1  1
 12 13  1  0
 13 14  1  0
 14 15  1  0
 15 16  1  0
 16 17  1  0
 12 17  1  0
 17 18  1  6
 16 19  1  1
 20 19  1  6
 20 21  1  0
 21 22  1  0
 22 23  1  0
 23 24  1  0
 24 25  1  0
 20 25  1  0
 24 26  1  1
 26 27  1  0
 27 28  1  0
 21 29  1  6
 15 30  1  6
 13 31  1  6
  2 32  1  0
M  END
>  <ALOGPS_LOGP>  (8) 
-1.84

>  <ALOGPS_LOGS>  (8) 
-1.42

>  <ALOGPS_SOLUBILITY>  (8) 
1.75e+01 g/l

>  <DATABASE_NAME>  (8) 
drugbank

>  <DRUGBANK_ID>  (8) 
DB13274

>  <DRUG_GROUPS>  (8) 
approved

>  <EXACT_MASS>  (8) 
463.30059868

>  <FORMULA>  (8) 
C20H41N5O7

>  <GENERIC_NAME>  (8) 
Micronomicin

>  <ID>  (8) 


>  <INCHI_IDENTIFIER>  (8) 
InChI=1S/C20H41N5O7/c1-20(28)8-29-19(14(27)17(20)25-3)32-16-12(23)6-11(22)15(13(16)26)31-18-10(21)5-4-9(30-18)7-24-2/h9-19,24-28H,4-8,21-23H2,1-3H3/t9-,10+,11-,12+,13-,14+,15+,16-,17+,18+,19+,20-/m0/s1

>  <INCHI_KEY>  (8) 
DNYGXMICFMACRA-XHEDQWPISA-N

>  <INTERNATIONAL_BRANDS>  (8) 
nan

>  <JCHEM_ACCEPTOR_COUNT>  (8) 
12

>  <JCHEM_ATOM_COUNT>  (8) 
73

>  <JCHEM_AVERAGE_POLARIZABILITY>  (8) 
49.66129412670688

>  <JCHEM_BIOAVAILABILITY>  (8) 
0

>  <JCHEM_DONOR_COUNT>  (8) 
8

>  <JCHEM_FORMAL_CHARGE>  (8) 
0

>  <JCHEM_GHOSE_FILTER>  (8) 
0

>  <JCHEM_IUPAC>  (8) 
(2R,3R,4R,5R)-2-{[(1S,2S,3R,4S,6R)-4,6-diamino-3-{[(2R,3R,6S)-3-amino-6-[(methylamino)methyl]oxan-2-yl]oxy}-2-hydroxycyclohexyl]oxy}-5-methyl-4-(methylamino)oxane-3,5-diol

>  <JCHEM_LOGP>  (8) 
-3.5537305539999995

>  <JCHEM_MDDR_LIKE_RULE>  (8) 
1

>  <JCHEM_NUMBER_OF_RINGS>  (8) 
3

>  <JCHEM_PHYSIOLOGICAL_CHARGE>  (8) 
5

>  <JCHEM_PKA>  (8) 
13.159314888955901

>  <JCHEM_PKA_STRONGEST_ACIDIC>  (8) 
12.548824540405306

>  <JCHEM_PKA_STRONGEST_BASIC>  (8) 
10.062735189141732

>  <JCHEM_POLAR_SURFACE_AREA>  (8) 
199.73000000000002

>  <JCHEM_REFRACTIVITY>  (8) 
113.60189999999997

>  <JCHEM_ROTATABLE_BOND_COUNT>  (8) 
7

>  <JCHEM_RULE_OF_FIVE>  (8) 
0

>  <JCHEM_TRADITIONAL_IUPAC>  (8) 
(2R,3R,4R,5R)-2-{[(1S,2S,3R,4S,6R)-4,6-diamino-3-{[(2R,3R,6S)-3-amino-6-[(methylamino)methyl]oxan-2-yl]oxy}-2-hydroxycyclohexyl]oxy}-5-methyl-4-(methylamino)oxane-3,5-diol

>  <JCHEM_VEBER_RULE>  (8) 
0

>  <MOLECULAR_WEIGHT>  (8) 
463.576

>  <PRODUCTS>  (8) 
nan

>  <SALTS>  (8) 
nan

>  <SECONDARY_ACCESSION_NUMBERS>  (8) 
nan

>  <SMILES>  (8) 
CNC[C@@H]1CC[C@@H](N)[C@@H](O[C@@H]2[C@@H](N)C[C@@H](N)[C@H](O[C@H]3OC[C@](C)(O)[C@H](NC)[C@H]3O)[C@H]2O)O1

>  <SYNONYMS>  (8) 
nan

>  <ECFP_FP>  (8) 
<rdkit.DataStructs.cDataStructs.ExplicitBitVect object at 0xa26c95800>

>  <pki_G>  (8) 
5.932436

>  <pki_D>  (8) 
6.000252

>  <pki_B>  (8) 
5.49014

>  <pki_A>  (8) 
5.467031

>  <SelB>  (8) 
0.442295

>  <SelA>  (8) 
0.465405

>  <SelD>  (8) 
-0.067816

>  <AvgABSel>  (8) 
0.45385

>  <MACCS_FP>  (8) 
[0. 0. 0. 0. 0. 0. 0. 0. 0. 0. 0. 0. 0. 0. 0. 0. 0. 0. 0. 0. 0. 0. 0. 0.
 0. 0. 0. 0. 0. 0. 0. 0. 0. 0. 0. 0. 0. 0. 0. 0. 0. 0. 0. 0. 0. 0. 0. 0.
 0. 0. 0. 0. 0. 1. 1. 0. 0. 1. 0. 0. 0. 0. 0. 0. 0. 0. 1. 0. 0. 0. 0. 0.
 1. 0. 0. 0. 0. 0. 0. 0. 1. 0. 1. 0. 1. 0. 1. 0. 0. 1. 1. 1. 0. 1. 0. 1.
 0. 1. 1. 0. 1. 0. 0. 0. 1. 0. 0. 0. 1. 1. 0. 1. 1. 0. 0. 1. 0. 0. 1. 0.
 1. 0. 0. 1. 0. 0. 1. 1. 0. 1. 0. 1. 1. 1. 0. 0. 0. 1. 1. 1. 1. 1. 1. 1.
 0. 1. 1. 1. 0. 1. 1. 1. 1. 1. 0. 1. 1. 1. 1. 1. 1. 1. 0. 1. 1. 1. 0.]

>  <MACCS_pki_G>  (8) 
6.096363

>  <MACCS_pki_D>  (8) 
5.778229

>  <MACCS_pki_B>  (8) 
6.113452

>  <MACCS_pki_A>  (8) 
6.11225

>  <MACCS_SelB>  (8) 
-0.017089

>  <MACCS_SelA>  (8) 
-0.015888

>  <MACCS_SelD>  (8) 
0.318133

>  <MACCSAvgABSel>  (8) 
-0.016489

>  <Pharm2D_FP>  (8) 
[0. 0. 0. ... 0. 0. 0.]

>  <Pharm2D_pki_G>  (8) 
6.586306

>  <Pharm2D_pki_D>  (8) 
5.906264

>  <Pharm2D_pki_B>  (8) 
5.694556

>  <Pharm2D_pki_A>  (8) 
5.128721

>  <Pharm2D_SelB>  (8) 
0.89175

>  <Pharm2D_SelA>  (8) 
1.457586

>  <Pharm2D_SelD>  (8) 
0.680043

>  <Pharm2DAvgABSel>  (8) 
1.174668

>  <QED>  (8) 
0.183855

$$$$
DB04729
     RDKit          2D

 31 33  0  0  0  0  0  0  0  0999 V2000
    0.7326    1.8563    0.0000 C   0  0  0  0  0  0  0  0  0  0  0  0
    0.7326    1.0313    0.0000 C   0  0  0  0  0  0  0  0  0  0  0  0
    0.0180    2.2689    0.0000 C   0  0  0  0  0  0  0  0  0  0  0  0
    0.0180    0.6187    0.0000 C   0  0  0  0  0  0  0  0  0  0  0  0
   -0.6965    1.8563    0.0000 C   0  0  0  0  0  0  0  0  0  0  0  0
   -0.6965    1.0313    0.0000 C   0  0  0  0  0  0  0  0  0  0  0  0
    1.4471    2.2689    0.0000 N   0  0  0  0  0  0  0  0  0  0  0  0
   -1.4109    2.2689    0.0000 N   0  0  0  0  0  0  0  0  0  0  0  0
   -1.4109    0.6187    0.0000 O   0  0  0  0  0  0  0  0  0  0  0  0
    0.0179   -0.2062    0.0000 O   0  0  0  0  0  0  0  0  0  0  0  0
    1.4471    0.6187    0.0000 O   0  0  0  0  0  0  0  0  0  0  0  0
   -2.1255    0.2062    0.0000 C   0  0  0  0  0  0  0  0  0  0  0  0
   -2.1255   -0.6187    0.0000 C   0  0  0  0  0  0  0  0  0  0  0  0
   -2.8400    0.6187    0.0000 O   0  0  0  0  0  0  0  0  0  0  0  0
   -2.8400   -1.0313    0.0000 C   0  0  0  0  0  0  0  0  0  0  0  0
   -3.5546    0.2062    0.0000 C   0  0  0  0  0  0  0  0  0  0  0  0
   -3.5546   -0.6187    0.0000 C   0  0  0  0  0  0  0  0  0  0  0  0
   -1.4109   -1.0313    0.0000 N   0  0  0  0  0  0  0  0  0  0  0  0
    2.1617    0.2062    0.0000 C   0  0  0  0  0  0  0  0  0  0  0  0
    2.1617   -0.6187    0.0000 C   0  0  0  0  0  0  0  0  0  0  0  0
    2.8762    0.6187    0.0000 O   0  0  0  0  0  0  0  0  0  0  0  0
    2.8762   -1.0313    0.0000 C   0  0  0  0  0  0  0  0  0  0  0  0
    3.5907    0.2062    0.0000 C   0  0  0  0  0  0  0  0  0  0  0  0
    3.5907   -0.6187    0.0000 C   0  0  0  0  0  0  0  0  0  0  0  0
    1.4471   -1.0313    0.0000 O   0  0  0  0  0  0  0  0  0  0  0  0
    2.8762   -1.8563    0.0000 N   0  0  0  0  0  0  0  0  0  0  0  0
    2.1617   -2.2689    0.0000 C   0  0  0  0  0  0  0  0  0  0  0  0
    4.2690   -0.3319    0.0000 C   0  0  0  0  0  0  0  0  0  0  0  0
    3.7583   -1.3691    0.0000 O   0  0  0  0  0  0  0  0  0  0  0  0
   -4.2690    0.6187    0.0000 C   0  0  0  0  0  0  0  0  0  0  0  0
   -4.2690    1.4438    0.0000 N   0  0  0  0  0  0  0  0  0  0  0  0
  2  1  1  0
  3  1  1  0
  4  2  1  0
  5  3  1  0
  6  4  1  0
  6  5  1  0
  1  7  1  1
  5  8  1  1
  6  9  1  6
  4 10  1  1
  2 11  1  6
 12 13  1  0
 12 14  1  0
 13 15  1  0
 14 16  1  0
 15 17  1  0
 16 17  1  0
 12  9  1  6
 13 18  1  6
 19 20  1  0
 19 21  1  0
 20 22  1  0
 21 23  1  0
 22 24  1  0
 23 24  1  0
 19 11  1  1
 20 25  1  1
 22 26  1  6
 27 26  1  0
 24 28  1  1
 24 29  1  0
 16 30  1  1
 31 30  1  0
M  END
>  <ALOGPS_LOGP>  (9) 
-2.24

>  <ALOGPS_LOGS>  (9) 
-1.34

>  <ALOGPS_SOLUBILITY>  (9) 
2.05e+01 g/l

>  <DATABASE_NAME>  (9) 
drugbank

>  <DRUGBANK_ID>  (9) 
DB04729

>  <DRUG_GROUPS>  (9) 
experimental

>  <EXACT_MASS>  (9) 
449.284948627

>  <FORMULA>  (9) 
C19H39N5O7

>  <GENERIC_NAME>  (9) 
Gentamicin C1a

>  <ID>  (9) 


>  <INCHI_IDENTIFIER>  (9) 
InChI=1S/C19H39N5O7/c1-19(27)7-28-18(13(26)16(19)24-2)31-15-11(23)5-10(22)14(12(15)25)30-17-9(21)4-3-8(6-20)29-17/h8-18,24-27H,3-7,20-23H2,1-2H3/t8-,9+,10-,11+,12-,13+,14+,15-,16+,17+,18+,19-/m0/s1

>  <INCHI_KEY>  (9) 
VEGXETMJINRLTH-BOZYPMBZSA-N

>  <INTERNATIONAL_BRANDS>  (9) 
nan

>  <JCHEM_ACCEPTOR_COUNT>  (9) 
12

>  <JCHEM_ATOM_COUNT>  (9) 
70

>  <JCHEM_AVERAGE_POLARIZABILITY>  (9) 
47.351159350515935

>  <JCHEM_BIOAVAILABILITY>  (9) 
0

>  <JCHEM_DONOR_COUNT>  (9) 
8

>  <JCHEM_FORMAL_CHARGE>  (9) 
0

>  <JCHEM_GHOSE_FILTER>  (9) 
0

>  <JCHEM_IUPAC>  (9) 
(2R,3R,4R,5R)-2-{[(1S,2S,3R,4S,6R)-4,6-diamino-3-{[(2R,3R,6S)-3-amino-6-(aminomethyl)oxan-2-yl]oxy}-2-hydroxycyclohexyl]oxy}-5-methyl-4-(methylamino)oxane-3,5-diol

>  <JCHEM_LOGP>  (9) 
-3.9863109476666665

>  <JCHEM_MDDR_LIKE_RULE>  (9) 
1

>  <JCHEM_NUMBER_OF_RINGS>  (9) 
3

>  <JCHEM_PHYSIOLOGICAL_CHARGE>  (9) 
5

>  <JCHEM_PKA>  (9) 
13.159228031928965

>  <JCHEM_PKA_STRONGEST_ACIDIC>  (9) 
12.548486195889797

>  <JCHEM_PKA_STRONGEST_BASIC>  (9) 
9.898564301835346

>  <JCHEM_POLAR_SURFACE_AREA>  (9) 
213.72

>  <JCHEM_REFRACTIVITY>  (9) 
108.8273

>  <JCHEM_ROTATABLE_BOND_COUNT>  (9) 
6

>  <JCHEM_RULE_OF_FIVE>  (9) 
0

>  <JCHEM_TRADITIONAL_IUPAC>  (9) 
gentamicin C1A

>  <JCHEM_VEBER_RULE>  (9) 
0

>  <MOLECULAR_WEIGHT>  (9) 
449.5423

>  <PRODUCTS>  (9) 
nan

>  <SALTS>  (9) 
Gentamicin c1a sulfate

>  <SECONDARY_ACCESSION_NUMBERS>  (9) 
nan

>  <SMILES>  (9) 
CN[C@@H]1[C@@H](O)[C@@H](O[C@H]2[C@H](N)C[C@H](N)[C@@H](O[C@H]3O[C@H](CN)CC[C@H]3N)[C@@H]2O)OC[C@]1(C)O

>  <SYNONYMS>  (9) 
Gentamycin C12

>  <ECFP_FP>  (9) 
<rdkit.DataStructs.cDataStructs.ExplicitBitVect object at 0xa269a55d0>

>  <pki_G>  (9) 
5.932436

>  <pki_D>  (9) 
6.014801

>  <pki_B>  (9) 
5.49014

>  <pki_A>  (9) 
5.467031

>  <SelB>  (9) 
0.442295

>  <SelA>  (9) 
0.465405

>  <SelD>  (9) 
-0.082365

>  <AvgABSel>  (9) 
0.45385

>  <MACCS_FP>  (9) 
[0. 0. 0. 0. 0. 0. 0. 0. 0. 0. 0. 0. 0. 0. 0. 0. 0. 0. 0. 0. 0. 0. 0. 0.
 0. 0. 0. 0. 0. 0. 0. 0. 0. 0. 0. 0. 0. 0. 0. 0. 0. 0. 0. 0. 0. 0. 0. 0.
 0. 0. 0. 0. 0. 1. 1. 0. 0. 1. 0. 0. 0. 0. 0. 0. 0. 0. 1. 0. 0. 0. 0. 0.
 1. 0. 0. 0. 0. 0. 0. 0. 1. 0. 1. 0. 1. 0. 0. 0. 0. 1. 1. 1. 0. 1. 0. 1.
 0. 1. 1. 0. 1. 0. 0. 0. 1. 0. 0. 0. 1. 1. 0. 1. 1. 0. 0. 1. 0. 0. 1. 0.
 1. 0. 0. 1. 0. 0. 1. 1. 0. 1. 0. 1. 1. 1. 0. 0. 0. 1. 1. 1. 1. 0. 1. 1.
 0. 1. 1. 1. 0. 1. 1. 1. 1. 1. 0. 1. 1. 1. 1. 1. 1. 1. 0. 1. 1. 1. 0.]

>  <MACCS_pki_G>  (9) 
6.137696

>  <MACCS_pki_D>  (9) 
5.869896

>  <MACCS_pki_B>  (9) 
6.113452

>  <MACCS_pki_A>  (9) 
6.041834

>  <MACCS_SelB>  (9) 
0.024244

>  <MACCS_SelA>  (9) 
0.095862

>  <MACCS_SelD>  (9) 
0.2678

>  <MACCSAvgABSel>  (9) 
0.060053

>  <Pharm2D_FP>  (9) 
[0. 0. 0. ... 0. 0. 0.]

>  <Pharm2D_pki_G>  (9) 
6.586306

>  <Pharm2D_pki_D>  (9) 
5.906264

>  <Pharm2D_pki_B>  (9) 
5.694556

>  <Pharm2D_pki_A>  (9) 
5.128721

>  <Pharm2D_SelB>  (9) 
0.89175

>  <Pharm2D_SelA>  (9) 
1.457586

>  <Pharm2D_SelD>  (9) 
0.680043

>  <Pharm2DAvgABSel>  (9) 
1.174668

>  <QED>  (9) 
0.194844

$$$$
DB12964
     RDKit          2D

 22 25  0  0  0  0  0  0  0  0999 V2000
    2.5399    2.5934    0.0000 C   0  0  0  0  0  0  0  0  0  0  0  0
    2.7948    1.8088    0.0000 C   0  0  0  0  0  0  0  0  0  0  0  0
    2.2428    1.1957    0.0000 C   0  0  0  0  0  0  0  0  0  0  0  0
    1.4358    1.3672    0.0000 C   0  0  0  0  0  0  0  0  0  0  0  0
    1.1809    2.1518    0.0000 C   0  0  0  0  0  0  0  0  0  0  0  0
    1.7329    2.7649    0.0000 C   0  0  0  0  0  0  0  0  0  0  0  0
    0.8838    0.7541    0.0000 C   0  0  0  0  0  0  0  0  0  0  0  0
    1.1387   -0.0305    0.0000 N   0  0  0  0  0  0  0  0  0  0  0  0
    1.9233   -0.2854    0.0000 C   0  0  0  0  0  0  0  0  0  0  0  0
    2.6378    0.1271    0.0000 C   0  0  0  0  0  0  0  0  0  0  0  0
    3.3523   -0.2854    0.0000 C   0  0  0  0  0  0  0  0  0  0  0  0
    3.3523   -1.1104    0.0000 C   0  0  0  0  0  0  0  0  0  0  0  0
    2.6378   -1.5229    0.0000 C   0  0  0  0  0  0  0  0  0  0  0  0
    1.9233   -1.1104    0.0000 C   0  0  0  0  0  0  0  0  0  0  0  0
    1.1387   -1.3654    0.0000 N   0  0  0  0  0  0  0  0  0  0  0  0
    0.6538   -0.6979    0.0000 C   0  0  0  0  0  0  0  0  0  0  0  0
   -0.1712   -0.6979    0.0000 N   0  0  0  0  0  0  0  0  0  0  0  0
   -0.5837   -1.4124    0.0000 C   0  0  0  0  0  0  0  0  0  0  0  0
   -1.4087   -1.4124    0.0000 C   0  0  0  0  0  0  0  0  0  0  0  0
   -1.8212   -0.6979    0.0000 N   0  0  0  0  0  0  0  0  0  0  0  0
   -1.4087    0.0165    0.0000 C   0  0  0  0  0  0  0  0  0  0  0  0
   -0.5837    0.0165    0.0000 C   0  0  0  0  0  0  0  0  0  0  0  0
  1  2  2  0
  2  3  1  0
  3  4  2  0
  4  5  1  0
  5  6  2  0
  1  6  1  0
  4  7  1  0
  7  8  1  0
  8  9  1  0
  9 10  2  0
 10 11  1  0
 11 12  2  0
 12 13  1  0
 13 14  2  0
  9 14  1  0
 14 15  1  0
 15 16  2  0
  8 16  1  0
 16 17  1  0
 17 18  1  0
 18 19  1  0
 19 20  1  0
 20 21  1  0
 21 22  1  0
 17 22  1  0
M  END
>  <ALOGPS_LOGP>  (10) 
3.01

>  <ALOGPS_LOGS>  (10) 
-2.83

>  <ALOGPS_SOLUBILITY>  (10) 
4.35e-01 g/l

>  <DATABASE_NAME>  (10) 
drugbank

>  <DRUGBANK_ID>  (10) 
DB12964

>  <DRUG_GROUPS>  (10) 
investigational

>  <EXACT_MASS>  (10) 
292.16879666

>  <FORMULA>  (10) 
C18H20N4

>  <GENERIC_NAME>  (10) 
Lerisetron

>  <ID>  (10) 


>  <INCHI_IDENTIFIER>  (10) 
InChI=1S/C18H20N4/c1-2-6-15(7-3-1)14-22-17-9-5-4-8-16(17)20-18(22)21-12-10-19-11-13-21/h1-9,19H,10-14H2

>  <INCHI_KEY>  (10) 
PWWDCRQZITYKDV-UHFFFAOYSA-N

>  <INTERNATIONAL_BRANDS>  (10) 
nan

>  <JCHEM_ACCEPTOR_COUNT>  (10) 
3

>  <JCHEM_ATOM_COUNT>  (10) 
42

>  <JCHEM_AVERAGE_POLARIZABILITY>  (10) 
32.968256303762686

>  <JCHEM_BIOAVAILABILITY>  (10) 
1

>  <JCHEM_DONOR_COUNT>  (10) 
1

>  <JCHEM_FORMAL_CHARGE>  (10) 
0

>  <JCHEM_GHOSE_FILTER>  (10) 
1

>  <JCHEM_IUPAC>  (10) 
1-benzyl-2-(piperazin-1-yl)-1H-1,3-benzodiazole

>  <JCHEM_LOGP>  (10) 
3.4640186873333336

>  <JCHEM_MDDR_LIKE_RULE>  (10) 
0

>  <JCHEM_NUMBER_OF_RINGS>  (10) 
4

>  <JCHEM_PHYSIOLOGICAL_CHARGE>  (10) 
1

>  <JCHEM_PKA>  (10) 
nan

>  <JCHEM_PKA_STRONGEST_ACIDIC>  (10) 
nan

>  <JCHEM_PKA_STRONGEST_BASIC>  (10) 
8.836258554775767

>  <JCHEM_POLAR_SURFACE_AREA>  (10) 
33.09

>  <JCHEM_REFRACTIVITY>  (10) 
89.13509999999998

>  <JCHEM_ROTATABLE_BOND_COUNT>  (10) 
3

>  <JCHEM_RULE_OF_FIVE>  (10) 
1

>  <JCHEM_TRADITIONAL_IUPAC>  (10) 
lerisetron

>  <JCHEM_VEBER_RULE>  (10) 
1

>  <MOLECULAR_WEIGHT>  (10) 
292.386

>  <PRODUCTS>  (10) 
nan

>  <SALTS>  (10) 
nan

>  <SECONDARY_ACCESSION_NUMBERS>  (10) 
nan

>  <SMILES>  (10) 
C(N1C2=CC=CC=C2N=C1N1CCNCC1)C1=CC=CC=C1

>  <SYNONYMS>  (10) 
nan

>  <ECFP_FP>  (10) 
<rdkit.DataStructs.cDataStructs.ExplicitBitVect object at 0xa26c70490>

>  <pki_G>  (10) 
5.930247

>  <pki_D>  (10) 
5.827412

>  <pki_B>  (10) 
5.673811

>  <pki_A>  (10) 
5.910377

>  <SelB>  (10) 
0.256437

>  <SelA>  (10) 
0.01987

>  <SelD>  (10) 
0.102835

>  <AvgABSel>  (10) 
0.138153

>  <MACCS_FP>  (10) 
[0. 0. 0. 0. 0. 0. 0. 0. 0. 0. 0. 0. 0. 0. 0. 0. 0. 0. 0. 0. 0. 0. 0. 0.
 0. 1. 0. 0. 0. 0. 0. 0. 0. 0. 0. 0. 0. 0. 0. 0. 0. 0. 0. 0. 0. 0. 0. 0.
 0. 0. 0. 0. 0. 0. 0. 0. 0. 0. 0. 0. 0. 0. 1. 0. 0. 1. 0. 0. 0. 0. 0. 0.
 0. 0. 0. 1. 0. 1. 0. 1. 0. 0. 1. 1. 0. 1. 1. 0. 0. 0. 0. 1. 0. 0. 0. 0.
 1. 0. 1. 0. 1. 1. 0. 0. 1. 1. 1. 0. 0. 0. 0. 1. 0. 0. 0. 0. 0. 0. 1. 0.
 1. 1. 1. 0. 0. 1. 0. 0. 1. 1. 0. 0. 0. 1. 0. 1. 0. 1. 1. 0. 0. 0. 1. 0.
 1. 1. 0. 1. 1. 0. 1. 1. 0. 1. 0. 1. 1. 0. 1. 0. 0. 1. 1. 1. 0. 1. 0.]

>  <MACCS_pki_G>  (10) 
6.507412

>  <MACCS_pki_D>  (10) 
6.001691

>  <MACCS_pki_B>  (10) 
5.885908

>  <MACCS_pki_A>  (10) 
5.538192

>  <MACCS_SelB>  (10) 
0.621504

>  <MACCS_SelA>  (10) 
0.96922

>  <MACCS_SelD>  (10) 
0.505721

>  <MACCSAvgABSel>  (10) 
0.795362

>  <Pharm2D_FP>  (10) 
[0. 0. 0. ... 0. 0. 0.]

>  <Pharm2D_pki_G>  (10) 
5.803417

>  <Pharm2D_pki_D>  (10) 
5.577077

>  <Pharm2D_pki_B>  (10) 
5.341597

>  <Pharm2D_pki_A>  (10) 
5.260939

>  <Pharm2D_SelB>  (10) 
0.46182

>  <Pharm2D_SelA>  (10) 
0.542478

>  <Pharm2D_SelD>  (10) 
0.22634

>  <Pharm2DAvgABSel>  (10) 
0.502149

>  <QED>  (10) 
0.804949

$$$$
DB13270
     RDKit          2D

 31 33  0  0  1  0  0  0  0  0999 V2000
   -2.8579    2.4750    0.0000 C   0  0  0  0  0  0  0  0  0  0  0  0
   -2.8579    3.3000    0.0000 C   0  0  0  0  0  0  0  0  0  0  0  0
   -6.4302    2.0625    0.0000 C   0  0  0  0  0  0  0  0  0  0  0  0
   -3.5724    1.2375    0.0000 C   0  0  0  0  0  0  0  0  0  0  0  0
   -6.4302    6.1875    0.0000 C   0  0  0  0  0  0  0  0  0  0  0  0
   -3.5724    2.0625    0.0000 C   0  0  0  0  0  0  0  0  0  0  0  0
   -3.5724    3.7125    0.0000 C   0  0  0  0  0  0  0  0  0  0  0  0
   -5.7158    2.4750    0.0000 C   0  0  0  0  0  0  0  0  0  0  0  0
   -7.1447    2.4750    0.0000 C   0  0  0  0  0  0  0  0  0  0  0  0
   -7.1447    5.7750    0.0000 C   0  0  0  0  0  0  0  0  0  0  0  0
   -8.5737    5.7750    0.0000 C   0  0  0  0  0  0  0  0  0  0  0  0
   -7.8592    6.1875    0.0000 C   0  0  0  0  0  0  0  0  0  0  0  0
   -8.5737    4.9500    0.0000 C   0  0  0  0  0  0  0  0  0  0  0  0
   -6.4302    3.7125    0.0000 C   0  0  0  0  0  0  0  0  0  0  0  0
   -5.7158    3.3000    0.0000 C   0  0  0  0  0  0  0  0  0  0  0  0
   -7.1447    3.3000    0.0000 C   0  0  0  0  0  0  0  0  0  0  0  0
   -4.2868    3.3000    0.0000 C   0  0  0  0  0  0  0  0  0  0  0  0
   -7.8592    4.5375    0.0000 C   0  0  0  0  0  0  0  0  0  0  0  0
   -2.8579    0.8250    0.0000 N   0  0  0  0  0  0  0  0  0  0  0  0
   -3.5724    4.5375    0.0000 N   0  0  0  0  0  0  0  0  0  0  0  0
   -5.0013    2.0625    0.0000 N   0  0  0  0  0  0  0  0  0  0  0  0
   -7.8592    2.0625    0.0000 N   0  0  0  0  0  0  0  0  0  0  0  0
   -9.2881    6.1875    0.0000 N   0  0  0  0  0  0  0  0  0  0  0  0
   -5.7158    5.7750    0.0000 O   0  0  0  0  0  0  0  0  0  0  0  0
   -7.8592    7.0125    0.0000 O   0  0  0  0  0  0  0  0  0  0  0  0
   -9.2881    4.5375    0.0000 O   0  0  0  0  0  0  0  0  0  0  0  0
   -6.4302    4.5375    0.0000 O   0  0  0  0  0  0  0  0  0  0  0  0
   -4.2868    2.4750    0.0000 O   0  0  0  0  0  0  0  0  0  0  0  0
   -7.1447    4.9500    0.0000 O   0  0  0  0  0  0  0  0  0  0  0  0
   -5.0013    3.7125    0.0000 O   0  0  0  0  0  0  0  0  0  0  0  0
   -7.8592    3.7125    0.0000 O   0  0  0  0  0  0  0  0  0  0  0  0
  2  1  1  0
  6  1  1  0
  6  4  1  1
  7  2  1  0
  8  3  1  0
  9  3  1  0
 10  5  1  1
 12 10  1  0
 12 11  1  0
 13 11  1  0
 15  8  1  0
 15 14  1  0
 16  9  1  0
 16 14  1  0
 17  7  1  0
 18 13  1  0
 19  4  1  0
  7 20  1  6
  8 21  1  1
  9 22  1  1
 11 23  1  1
 24  5  1  0
 12 25  1  6
 13 26  1  6
 14 27  1  1
 28  6  1  0
 28 17  1  0
 29 10  1  0
 29 18  1  0
 15 30  1  6
 17 30  1  6
 16 31  1  6
 18 31  1  6
M  END
>  <ALOGPS_LOGP>  (11) 
-2.65

>  <ALOGPS_LOGS>  (11) 
-1.13

>  <ALOGPS_SOLUBILITY>  (11) 
3.39e+01 g/l

>  <DATABASE_NAME>  (11) 
drugbank

>  <DRUGBANK_ID>  (11) 
DB13270

>  <DRUG_GROUPS>  (11) 
approved

>  <EXACT_MASS>  (11) 
451.264213171

>  <FORMULA>  (11) 
C18H37N5O8

>  <GENERIC_NAME>  (11) 
Dibekacin

>  <ID>  (11) 


>  <INCHI_IDENTIFIER>  (11) 
InChI=1S/C18H37N5O8/c19-4-6-1-2-7(20)17(28-6)30-15-8(21)3-9(22)16(14(15)27)31-18-13(26)11(23)12(25)10(5-24)29-18/h6-18,24-27H,1-5,19-23H2/t6-,7+,8-,9+,10+,11-,12+,13+,14-,15+,16-,17+,18+/m0/s1

>  <INCHI_KEY>  (11) 
JJCQSGDBDPYCEO-XVZSLQNASA-N

>  <INTERNATIONAL_BRANDS>  (11) 
nan

>  <JCHEM_ACCEPTOR_COUNT>  (11) 
13

>  <JCHEM_ATOM_COUNT>  (11) 
68

>  <JCHEM_AVERAGE_POLARIZABILITY>  (11) 
45.98370973252222

>  <JCHEM_BIOAVAILABILITY>  (11) 
0

>  <JCHEM_DONOR_COUNT>  (11) 
9

>  <JCHEM_FORMAL_CHARGE>  (11) 
0

>  <JCHEM_GHOSE_FILTER>  (11) 
0

>  <JCHEM_IUPAC>  (11) 
(2S,3R,4S,5S,6R)-4-amino-2-{[(1S,2S,3R,4S,6R)-4,6-diamino-3-{[(2R,3R,6S)-3-amino-6-(aminomethyl)oxan-2-yl]oxy}-2-hydroxycyclohexyl]oxy}-6-(hydroxymethyl)oxane-3,5-diol

>  <JCHEM_LOGP>  (11) 
-5.329802951666668

>  <JCHEM_MDDR_LIKE_RULE>  (11) 
1

>  <JCHEM_NUMBER_OF_RINGS>  (11) 
3

>  <JCHEM_PHYSIOLOGICAL_CHARGE>  (11) 
5

>  <JCHEM_PKA>  (11) 
13.132839127476881

>  <JCHEM_PKA_STRONGEST_ACIDIC>  (11) 
12.542764098344968

>  <JCHEM_PKA_STRONGEST_BASIC>  (11) 
9.956986298751204

>  <JCHEM_POLAR_SURFACE_AREA>  (11) 
247.9399999999999

>  <JCHEM_REFRACTIVITY>  (11) 
105.37699999999998

>  <JCHEM_ROTATABLE_BOND_COUNT>  (11) 
6

>  <JCHEM_RULE_OF_FIVE>  (11) 
0

>  <JCHEM_TRADITIONAL_IUPAC>  (11) 
dibekacin

>  <JCHEM_VEBER_RULE>  (11) 
0

>  <MOLECULAR_WEIGHT>  (11) 
451.521

>  <PRODUCTS>  (11) 
nan

>  <SALTS>  (11) 
nan

>  <SECONDARY_ACCESSION_NUMBERS>  (11) 
nan

>  <SMILES>  (11) 
[H][C@@]1(N)CC[C@@]([H])(CN)O[C@]1([H])O[C@]1([H])[C@@]([H])(N)C[C@@]([H])(N)[C@]([H])(O[C@@]2([H])O[C@]([H])(CO)[C@@]([H])(O)[C@]([H])(N)[C@@]2([H])O)[C@@]1([H])O

>  <SYNONYMS>  (11) 
Dibekacin

>  <ECFP_FP>  (11) 
<rdkit.DataStructs.cDataStructs.ExplicitBitVect object at 0xa26c958f0>

>  <pki_G>  (11) 
5.92184

>  <pki_D>  (11) 
5.862512

>  <pki_B>  (11) 
5.495033

>  <pki_A>  (11) 
5.022814

>  <SelB>  (11) 
0.426807

>  <SelA>  (11) 
0.899026

>  <SelD>  (11) 
0.059328

>  <AvgABSel>  (11) 
0.662917

>  <MACCS_FP>  (11) 
[0. 0. 0. 0. 0. 0. 0. 0. 0. 0. 0. 0. 0. 0. 0. 0. 0. 0. 0. 0. 0. 0. 0. 0.
 0. 0. 0. 0. 0. 0. 0. 0. 0. 0. 0. 0. 0. 0. 0. 0. 0. 0. 0. 0. 0. 0. 0. 0.
 0. 0. 0. 0. 0. 1. 1. 0. 0. 1. 0. 0. 0. 0. 0. 0. 0. 0. 0. 0. 0. 0. 0. 0.
 1. 0. 0. 0. 0. 0. 0. 0. 1. 0. 1. 0. 1. 0. 0. 0. 0. 1. 1. 1. 0. 0. 0. 1.
 0. 1. 1. 0. 1. 0. 0. 0. 1. 0. 0. 0. 0. 1. 0. 1. 0. 0. 0. 0. 0. 0. 1. 0.
 1. 0. 0. 1. 0. 0. 1. 1. 0. 1. 0. 1. 1. 1. 0. 0. 0. 1. 1. 1. 1. 0. 1. 1.
 0. 1. 1. 1. 0. 0. 1. 1. 1. 1. 0. 1. 1. 1. 1. 1. 0. 1. 0. 1. 1. 1. 0.]

>  <MACCS_pki_G>  (11) 
6.198538

>  <MACCS_pki_D>  (11) 
5.869896

>  <MACCS_pki_B>  (11) 
6.113452

>  <MACCS_pki_A>  (11) 
6.041834

>  <MACCS_SelB>  (11) 
0.085086

>  <MACCS_SelA>  (11) 
0.156704

>  <MACCS_SelD>  (11) 
0.328641

>  <MACCSAvgABSel>  (11) 
0.120895

>  <Pharm2D_FP>  (11) 
[0. 0. 0. ... 0. 0. 0.]

>  <Pharm2D_pki_G>  (11) 
6.586306

>  <Pharm2D_pki_D>  (11) 
5.906264

>  <Pharm2D_pki_B>  (11) 
5.720499

>  <Pharm2D_pki_A>  (11) 
5.128721

>  <Pharm2D_SelB>  (11) 
0.865807

>  <Pharm2D_SelA>  (11) 
1.457586

>  <Pharm2D_SelD>  (11) 
0.680043

>  <Pharm2DAvgABSel>  (11) 
1.161697

>  <QED>  (11) 
0.183193

$$$$
DB11878
     RDKit          2D

 37 41  0  0  1  0  0  0  0  0999 V2000
   -4.9395   -4.1865    0.0000 C   0  0  0  0  0  0  0  0  0  0  0  0
   -5.9169   -1.5010    0.0000 C   0  0  0  0  0  0  0  0  0  0  0  0
    4.0668    2.3479    0.0000 C   0  0  0  0  0  0  0  0  0  0  0  0
    2.6378   -0.1271    0.0000 C   0  0  0  0  0  0  0  0  0  0  0  0
   -4.1642   -3.9044    0.0000 C   0  0  0  0  0  0  0  0  0  0  0  0
   -5.1417   -1.2188    0.0000 C   0  0  0  0  0  0  0  0  0  0  0  0
   -1.4512   -2.7548    0.0000 C   0  0  0  0  0  0  0  0  0  0  0  0
   -0.6388   -2.6116    0.0000 C   0  0  0  0  0  0  0  0  0  0  0  0
   -1.8385   -2.0264    0.0000 C   0  0  0  0  0  0  0  0  0  0  0  0
   -0.5239   -1.7946    0.0000 C   0  0  0  0  0  0  0  0  0  0  0  0
   -2.3272   -1.7151    0.0000 C   0  0  0  0  0  0  0  0  0  0  0  0
   -2.1839   -0.9026    0.0000 C   0  0  0  0  0  0  0  0  0  0  0  0
    3.3523    1.1104    0.0000 C   0  0  0  0  0  0  0  0  0  0  0  0
   -3.2457   -2.8097    0.0000 C   0  0  0  0  0  0  0  0  0  0  0  0
   -3.7344   -1.4670    0.0000 C   0  0  0  0  0  0  0  0  0  0  0  0
   -0.1712    1.5229    0.0000 C   0  0  0  0  0  0  0  0  0  0  0  0
   -0.5837   -0.6205    0.0000 C   0  0  0  0  0  0  0  0  0  0  0  0
    3.3523    1.9354    0.0000 C   0  0  0  0  0  0  0  0  0  0  0  0
    2.6378    0.6979    0.0000 C   0  0  0  0  0  0  0  0  0  0  0  0
   -3.1025   -1.9973    0.0000 C   0  0  0  0  0  0  0  0  0  0  0  0
   -1.2654   -1.4329    0.0000 C   0  0  0  0  0  0  0  0  0  0  0  0
   -4.0210   -3.0919    0.0000 C   0  0  0  0  0  0  0  0  0  0  0  0
   -4.5097   -1.7491    0.0000 C   0  0  0  0  0  0  0  0  0  0  0  0
   -0.5837    0.8085    0.0000 C   0  0  0  0  0  0  0  0  0  0  0  0
   -0.1712    0.0940    0.0000 C   0  0  0  0  0  0  0  0  0  0  0  0
    0.6538    1.5229    0.0000 C   0  0  0  0  0  0  0  0  0  0  0  0
   -1.4087    0.8085    0.0000 C   0  0  0  0  0  0  0  0  0  0  0  0
    1.9233    1.9354    0.0000 C   0  0  0  0  0  0  0  0  0  0  0  0
   -1.4087   -0.6205    0.0000 C   0  0  0  0  0  0  0  0  0  0  0  0
    2.6378    2.3479    0.0000 N   0  0  0  0  0  0  0  0  0  0  0  0
   -4.6529   -2.5616    0.0000 N   0  0  0  0  0  0  0  0  0  0  0  0
    1.1387    2.1904    0.0000 N   0  0  0  0  0  0  0  0  0  0  0  0
    1.1387    0.8555    0.0000 N   0  0  0  0  0  0  0  0  0  0  0  0
    1.9233    1.1104    0.0000 N   0  0  0  0  0  0  0  0  0  0  0  0
    0.6538    0.0940    0.0000 O   0  0  0  0  0  0  0  0  0  0  0  0
   -1.8212    1.5229    0.0000 O   0  0  0  0  0  0  0  0  0  0  0  0
   -1.8212    0.0940    0.0000 O   0  0  0  0  0  0  0  0  0  0  0  0
  5  1  1  0
  6  2  1  0
  8  7  1  0
  9  7  1  0
 10  8  1  0
 12 11  1  0
 18  3  1  0
 18 13  1  0
 19  4  1  0
 19 13  2  0
 20 11  1  0
 20 14  2  0
 20 15  1  0
 21  9  1  0
 21 10  1  0
 22  5  1  0
 22 14  1  0
 23  6  1  0
 23 15  2  0
 24 16  1  0
 25 17  1  0
 25 24  2  0
 26 16  1  0
 27 24  1  0
 29 12  1  1
 29 17  1  0
 29 21  1  0
 30 18  2  0
 30 28  1  0
 31 22  2  0
 31 23  1  0
 32 26  1  0
 32 28  2  0
 33 26  2  0
 34 19  1  0
 34 28  1  0
 34 33  1  0
 35 25  1  0
 36 27  2  0
 37 27  1  0
 37 29  1  0
M  END
>  <ALOGPS_LOGP>  (12) 
5.13

>  <ALOGPS_LOGS>  (12) 
-4.68

>  <ALOGPS_SOLUBILITY>  (12) 
1.04e-02 g/l

>  <DATABASE_NAME>  (12) 
drugbank

>  <DRUGBANK_ID>  (12) 
DB11878

>  <DRUG_GROUPS>  (12) 
investigational

>  <EXACT_MASS>  (12) 
503.289640075

>  <FORMULA>  (12) 
C29H37N5O3

>  <GENERIC_NAME>  (12) 
Filibuvir

>  <ID>  (12) 


>  <INCHI_IDENTIFIER>  (12) 
InChI=1S/C29H37N5O3/c1-5-22-14-20(15-23(6-2)31-22)11-12-29(21-9-7-8-10-21)17-25(35)24(27(36)37-29)16-26-32-28-30-18(3)13-19(4)34(28)33-26/h13-15,21,35H,5-12,16-17H2,1-4H3/t29-/m1/s1

>  <INCHI_KEY>  (12) 
SLVAPEZTBDBAPI-GDLZYMKVSA-N

>  <INTERNATIONAL_BRANDS>  (12) 
nan

>  <JCHEM_ACCEPTOR_COUNT>  (12) 
6

>  <JCHEM_ATOM_COUNT>  (12) 
nan

>  <JCHEM_AVERAGE_POLARIZABILITY>  (12) 
56.99301646080645

>  <JCHEM_BIOAVAILABILITY>  (12) 
1

>  <JCHEM_DONOR_COUNT>  (12) 
1

>  <JCHEM_FORMAL_CHARGE>  (12) 
0

>  <JCHEM_GHOSE_FILTER>  (12) 
0

>  <JCHEM_IUPAC>  (12) 
(6R)-6-cyclopentyl-6-[2-(2,6-diethylpyridin-4-yl)ethyl]-3-({5,7-dimethyl-[1,2,4]triazolo[1,5-a]pyrimidin-2-yl}methyl)-4-hydroxy-5,6-dihydro-2H-pyran-2-one

>  <JCHEM_LOGP>  (12) 
4.854815312547141

>  <JCHEM_MDDR_LIKE_RULE>  (12) 
1

>  <JCHEM_NUMBER_OF_RINGS>  (12) 
5

>  <JCHEM_PHYSIOLOGICAL_CHARGE>  (12) 
-1

>  <JCHEM_PKA>  (12) 
nan

>  <JCHEM_PKA_STRONGEST_ACIDIC>  (12) 
7.026546128461788

>  <JCHEM_PKA_STRONGEST_BASIC>  (12) 
6.039481570857374

>  <JCHEM_POLAR_SURFACE_AREA>  (12) 
102.50000000000001

>  <JCHEM_REFRACTIVITY>  (12) 
154.90770000000003

>  <JCHEM_ROTATABLE_BOND_COUNT>  (12) 
8

>  <JCHEM_RULE_OF_FIVE>  (12) 
0

>  <JCHEM_TRADITIONAL_IUPAC>  (12) 
(6R)-6-cyclopentyl-6-[2-(2,6-diethylpyridin-4-yl)ethyl]-3-({5,7-dimethyl-[1,2,4]triazolo[1,5-a]pyrimidin-2-yl}methyl)-4-hydroxy-5H-pyran-2-one

>  <JCHEM_VEBER_RULE>  (12) 
0

>  <MOLECULAR_WEIGHT>  (12) 
503.6358

>  <PRODUCTS>  (12) 
nan

>  <SALTS>  (12) 
nan

>  <SECONDARY_ACCESSION_NUMBERS>  (12) 
nan

>  <SMILES>  (12) 
CCC1=CC(CC[C@@]2(CC(O)=C(CC3=NN4C(=N3)N=C(C)C=C4C)C(=O)O2)C2CCCC2)=CC(CC)=N1

>  <SYNONYMS>  (12) 
nan

>  <ECFP_FP>  (12) 
<rdkit.DataStructs.cDataStructs.ExplicitBitVect object at 0xa26bed1c0>

>  <pki_G>  (12) 
5.912414

>  <pki_D>  (12) 
5.744468

>  <pki_B>  (12) 
5.304747

>  <pki_A>  (12) 
5.589718

>  <SelB>  (12) 
0.607667

>  <SelA>  (12) 
0.322696

>  <SelD>  (12) 
0.167947

>  <AvgABSel>  (12) 
0.465181

>  <MACCS_FP>  (12) 
[0. 0. 0. 0. 0. 0. 0. 0. 0. 0. 0. 0. 0. 0. 0. 0. 0. 0. 0. 0. 0. 0. 0. 0.
 0. 1. 0. 0. 0. 0. 0. 0. 0. 0. 0. 0. 0. 0. 1. 0. 0. 0. 0. 0. 0. 0. 0. 0.
 0. 0. 1. 0. 1. 0. 0. 0. 0. 1. 0. 0. 0. 0. 1. 0. 0. 1. 1. 0. 0. 0. 0. 0.
 0. 0. 0. 0. 1. 1. 0. 1. 1. 0. 0. 1. 0. 0. 0. 0. 0. 1. 1. 1. 0. 0. 1. 0.
 1. 0. 1. 1. 0. 1. 0. 0. 1. 1. 1. 0. 0. 0. 0. 1. 1. 0. 1. 0. 0. 0. 1. 0.
 1. 1. 1. 1. 1. 1. 0. 1. 1. 1. 0. 0. 1. 0. 0. 0. 0. 1. 0. 1. 0. 1. 1. 1.
 0. 1. 1. 1. 1. 1. 1. 0. 1. 0. 1. 1. 1. 1. 0. 1. 1. 1. 1. 1. 1. 1. 0.]

>  <MACCS_pki_G>  (12) 
6.0371

>  <MACCS_pki_D>  (12) 
6.25285

>  <MACCS_pki_B>  (12) 
5.668702

>  <MACCS_pki_A>  (12) 
5.909568

>  <MACCS_SelB>  (12) 
0.368398

>  <MACCS_SelA>  (12) 
0.127532

>  <MACCS_SelD>  (12) 
-0.215749

>  <MACCSAvgABSel>  (12) 
0.247965

>  <Pharm2D_FP>  (12) 
[0. 0. 0. ... 0. 0. 0.]

>  <Pharm2D_pki_G>  (12) 
6.564301

>  <Pharm2D_pki_D>  (12) 
5.896329

>  <Pharm2D_pki_B>  (12) 
5.431284

>  <Pharm2D_pki_A>  (12) 
5.622652

>  <Pharm2D_SelB>  (12) 
1.133018

>  <Pharm2D_SelA>  (12) 
0.94165

>  <Pharm2D_SelD>  (12) 
0.667973

>  <Pharm2DAvgABSel>  (12) 
1.037334

>  <QED>  (12) 
0.42546

$$$$
DB00798
     RDKit          2D

 33 35  0  0  1  0  0  0  0  0999 V2000
    4.9509   -1.9904    0.0000 O   0  0  0  0  0  0  0  0  0  0  0  0
    6.3799    0.4847    0.0000 O   0  0  0  0  0  0  0  0  0  0  0  0
    4.9509   -0.3403    0.0000 O   0  0  0  0  0  0  0  0  0  0  0  0
    4.2365   -0.7528    0.0000 O   0  0  0  0  0  0  0  0  0  0  0  0
    7.6175    1.1992    0.0000 O   0  0  0  0  0  0  0  0  0  0  0  0
    3.5220   -2.8154    0.0000 O   0  0  0  0  0  0  0  0  0  0  0  0
    2.3950   -0.0384    0.0000 O   0  0  0  0  0  0  0  0  0  0  0  0
    6.3799   -2.8154    0.0000 N   0  0  0  0  0  0  0  0  0  0  0  0
    7.9194   -0.7528    0.0000 N   0  0  0  0  0  0  0  0  0  0  0  0
    2.0930   -1.9904    0.0000 N   0  0  0  0  0  0  0  0  0  0  0  0
    5.5549    1.9136    0.0000 N   0  0  0  0  0  0  0  0  0  0  0  0
    9.2675    2.6282    0.0000 N   0  0  0  0  0  0  0  0  0  0  0  0
    5.6655   -1.5778    0.0000 C   0  0  0  0  0  0  0  0  0  0  0  0
    6.3799   -0.3403    0.0000 C   0  0  0  0  0  0  0  0  0  0  0  0
    5.6655   -0.7528    0.0000 C   0  0  0  0  0  0  0  0  0  0  0  0
    6.3799   -1.9904    0.0000 C   0  0  0  0  0  0  0  0  0  0  0  0
    7.0944   -0.7528    0.0000 C   0  0  0  0  0  0  0  0  0  0  0  0
    7.0944   -1.5778    0.0000 C   0  0  0  0  0  0  0  0  0  0  0  0
    4.2365   -1.5778    0.0000 C   0  0  0  0  0  0  0  0  0  0  0  0
    2.8075   -1.5778    0.0000 C   0  0  0  0  0  0  0  0  0  0  0  0
    3.5220   -1.9904    0.0000 C   0  0  0  0  0  0  0  0  0  0  0  0
    6.7925    1.1992    0.0000 C   0  0  0  0  0  0  0  0  0  0  0  0
    2.8075   -0.7528    0.0000 C   0  0  0  0  0  0  0  0  0  0  0  0
    6.3799    1.9136    0.0000 C   0  0  0  0  0  0  0  0  0  0  0  0
    8.0300    1.9136    0.0000 C   0  0  0  0  0  0  0  0  0  0  0  0
    6.7925    2.6282    0.0000 C   0  0  0  0  0  0  0  0  0  0  0  0
    3.5220   -0.3403    0.0000 C   0  0  0  0  0  0  0  0  0  0  0  0
    7.6175    2.6282    0.0000 C   0  0  0  0  0  0  0  0  0  0  0  0
    8.8550    1.9136    0.0000 C   0  0  0  0  0  0  0  0  0  0  0  0
    1.9825   -0.7528    0.0000 C   0  0  0  0  0  0  0  0  0  0  0  0
    9.2675    1.1992    0.0000 C   0  0  0  0  0  0  0  0  0  0  0  0
    2.0930   -2.8154    0.0000 C   0  0  0  0  0  0  0  0  0  0  0  0
   10.0925    2.6282    0.0000 C   0  0  0  0  0  0  0  0  0  0  0  0
  1 13  1  0
  1 19  1  0
  2 14  1  0
  2 22  1  0
  3 15  1  0
  4 19  1  0
  4 27  1  0
  5 22  1  0
  5 25  1  0
  6 21  1  0
  7 23  1  0
  8 16  1  0
  9 17  1  0
 10 20  1  0
 10 32  1  0
 11 24  1  0
 12 29  1  0
 12 33  1  0
 13 15  1  0
 13 16  1  0
 14 15  1  0
 14 17  1  0
 16 18  1  0
 17 18  1  0
 19 21  1  0
 20 21  1  0
 20 23  1  0
 22 24  1  0
 23 27  1  0
 23 30  1  0
 24 26  1  0
 25 28  1  0
 25 29  1  0
 26 28  1  0
 29 31  1  0
M  END
>  <ALOGPS_LOGP>  (13) 
-1.64

>  <ALOGPS_LOGS>  (13) 
-1.58

>  <ALOGPS_SOLUBILITY>  (13) 
1.26e+01 g/l

>  <DATABASE_NAME>  (13) 
drugbank

>  <DRUGBANK_ID>  (13) 
DB00798

>  <DRUG_GROUPS>  (13) 
approved; vet_approved

>  <EXACT_MASS>  (13) 
477.316248755

>  <FORMULA>  (13) 
C21H43N5O7

>  <GENERIC_NAME>  (13) 
Gentamicin

>  <ID>  (13) 
798

>  <INCHI_IDENTIFIER>  (13) 
InChI=1S/C21H43N5O7/c1-9(25-3)13-6-5-10(22)19(31-13)32-16-11(23)7-12(24)17(14(16)27)33-20-15(28)18(26-4)21(2,29)8-30-20/h9-20,25-29H,5-8,22-24H2,1-4H3

>  <INCHI_KEY>  (13) 
CEAZRRDELHUEMR-UHFFFAOYSA-N

>  <INTERNATIONAL_BRANDS>  (13) 
Alcomicin; Bristagen; G-Mycin; Genoptic; Gentacidin; Gentafair; Gentamar; Jenamicin; Ocu-Mycin; Spectro-Genta; U-gencin

>  <JCHEM_ACCEPTOR_COUNT>  (13) 
12

>  <JCHEM_ATOM_COUNT>  (13) 
nan

>  <JCHEM_AVERAGE_POLARIZABILITY>  (13) 
51.923795808054095

>  <JCHEM_BIOAVAILABILITY>  (13) 
0

>  <JCHEM_DONOR_COUNT>  (13) 
8

>  <JCHEM_FORMAL_CHARGE>  (13) 
0

>  <JCHEM_GHOSE_FILTER>  (13) 
0

>  <JCHEM_IUPAC>  (13) 
2-{[4,6-diamino-3-({3-amino-6-[1-(methylamino)ethyl]oxan-2-yl}oxy)-2-hydroxycyclohexyl]oxy}-5-methyl-4-(methylamino)oxane-3,5-diol

>  <JCHEM_LOGP>  (13) 
-3.1371555293333344

>  <JCHEM_MDDR_LIKE_RULE>  (13) 
1

>  <JCHEM_NUMBER_OF_RINGS>  (13) 
3

>  <JCHEM_PHYSIOLOGICAL_CHARGE>  (13) 
5

>  <JCHEM_PKA>  (13) 
13.159419991605812

>  <JCHEM_PKA_STRONGEST_ACIDIC>  (13) 
12.5491782180648

>  <JCHEM_PKA_STRONGEST_BASIC>  (13) 
10.183710185453362

>  <JCHEM_POLAR_SURFACE_AREA>  (13) 
199.73000000000002

>  <JCHEM_REFRACTIVITY>  (13) 
118.02069999999998

>  <JCHEM_ROTATABLE_BOND_COUNT>  (13) 
7

>  <JCHEM_RULE_OF_FIVE>  (13) 
0

>  <JCHEM_TRADITIONAL_IUPAC>  (13) 
gentamicin

>  <JCHEM_VEBER_RULE>  (13) 
0

>  <MOLECULAR_WEIGHT>  (13) 
477.5954

>  <PRODUCTS>  (13) 
Alcomicin Oph Sol 3mg/ml; Amolg A; Betamycin Ophthalmic/otic Solution; Celestone-G; Cidomycin Inj 10mg/ml; Cidomycin Inj 40mg/ml; Cidomycin Inj Pediatric 10mg; Diprogen Cream; Diprogen Ointment; Dom-gentamicin-betamethasone; Garamycin; Garamycin Cream 0.1%; Garamycin Gentamicin Sulfate; Garamycin Inj 10mg/ml Pediatric; Garamycin Inj 40mg/ml; Garamycin Ont 0.1%; Garamycin Ophthalmic Drops 0.3%; Garamycin Ophthalmic Ointment 0.3%; Garamycin Otic Drops 0.3%; Garasone Ophthalmic Ointment; Garasone Ophthalmic and Otic Solution; Garatec Ophthalmic Dps 5mg/ml; Garatec Otic Dps 5mg/ml; Gentacidin Oph Soln 3mg/ml; Gentacidin Ophthalmic Solution 3mg/ml; Gentak; Gentamicin; Gentamicin Injection USP; Gentamicin Sulfate; Gentamicin Sulfate In 0.9% Sodium Chloride Injection; Gentamicin Sulfate In Nacl 0.9% Inj; Gentamicin Sulfate In Nacl O.9% Inj; Gentamicin Sulfate In Sodium Chloride; Gentamicin Sulfate in Sodium Chloride; Gentamicin Sulphate 0.3% - Liq Oph; Gentamicin Sulphate Injection USP-10mg/ml; Gentamicin Sulphate Injection USP-40mg/ml; Gentamicin sulfate; Gentamicin(e) 100mg Liq IV 1mg/ml; Gentamicin(e) 120mg Liq IV 1.2mg/ml; Gentamicin(e) 80mg Liq IV 1.6mg/ml; Gentrasul Liq 3mg/ml; Gentrasul Oph Ointment 3mg/gm; Minims Gentamicin Sulfate 0.3%; Ocugram Liq 3mg/ml; Ocugram Ont 3mg/gm; Odan-gentamicin; PMS-gentamicin Cream 1mg/gm; PMS-gentamicin Ointment 1mg/gm; PMS-gentamicin Ophthalmic Ointment 0.3%; PMS-gentamicin Otic Drops 0.3%; PMS-gentamicin Sulfate Oph Dps 0.3%; PMS-gentamicin-betamethasone; Pred-G; R.O.-gentycin; Ratio-gentamicin; Sandoz Gentamicin; Sandoz Pentasone; Septopal; Valisone-G Cream; Valisone-G Ointment

>  <SALTS>  (13) 
Gentamicin sulfate

>  <SECONDARY_ACCESSION_NUMBERS>  (13) 
APRD00214

>  <SMILES>  (13) 
CNC(C)C1CCC(N)C(OC2C(N)CC(N)C(OC3OCC(C)(O)C(NC)C3O)C2O)O1

>  <SYNONYMS>  (13) 
Gentamicin; Gentamicina

>  <ECFP_FP>  (13) 
<rdkit.DataStructs.cDataStructs.ExplicitBitVect object at 0xa2662c8a0>

>  <pki_G>  (13) 
5.903515

>  <pki_D>  (13) 
6.025086

>  <pki_B>  (13) 
5.494016

>  <pki_A>  (13) 
5.428902

>  <SelB>  (13) 
0.4095

>  <SelA>  (13) 
0.474613

>  <SelD>  (13) 
-0.121571

>  <AvgABSel>  (13) 
0.442056

>  <MACCS_FP>  (13) 
[0. 0. 0. 0. 0. 0. 0. 0. 0. 0. 0. 0. 0. 0. 0. 0. 0. 0. 0. 0. 0. 0. 0. 0.
 0. 0. 0. 0. 0. 0. 0. 0. 0. 0. 0. 0. 0. 0. 0. 0. 0. 0. 0. 0. 0. 0. 0. 0.
 0. 0. 0. 0. 0. 1. 1. 0. 0. 1. 0. 0. 0. 0. 0. 0. 0. 0. 1. 0. 0. 0. 0. 0.
 1. 0. 0. 0. 0. 0. 0. 0. 1. 0. 0. 0. 1. 0. 0. 0. 0. 1. 1. 1. 0. 1. 0. 1.
 0. 1. 1. 0. 0. 0. 0. 0. 1. 0. 0. 0. 1. 1. 0. 1. 1. 0. 0. 1. 1. 0. 1. 0.
 1. 0. 0. 1. 0. 0. 1. 1. 0. 0. 0. 1. 1. 1. 0. 0. 0. 1. 0. 1. 1. 1. 1. 1.
 0. 1. 1. 1. 0. 1. 1. 1. 1. 1. 0. 0. 1. 1. 1. 1. 1. 1. 0. 1. 1. 1. 0.]

>  <MACCS_pki_G>  (13) 
6.182877

>  <MACCS_pki_D>  (13) 
5.890253

>  <MACCS_pki_B>  (13) 
6.140952

>  <MACCS_pki_A>  (13) 
6.01025

>  <MACCS_SelB>  (13) 
0.041925

>  <MACCS_SelA>  (13) 
0.172627

>  <MACCS_SelD>  (13) 
0.292624

>  <MACCSAvgABSel>  (13) 
0.107276

>  <Pharm2D_FP>  (13) 
[0. 0. 0. ... 0. 0. 0.]

>  <Pharm2D_pki_G>  (13) 
6.586306

>  <Pharm2D_pki_D>  (13) 
5.906264

>  <Pharm2D_pki_B>  (13) 
5.694556

>  <Pharm2D_pki_A>  (13) 
5.128721

>  <Pharm2D_SelB>  (13) 
0.89175

>  <Pharm2D_SelA>  (13) 
1.457586

>  <Pharm2D_SelD>  (13) 
0.680043

>  <Pharm2DAvgABSel>  (13) 
1.174668

>  <QED>  (13) 
0.181598

$$$$
DB02082
     RDKit          2D

 32 34  0  0  1  0  0  0  0  0999 V2000
   -1.8505   -3.7149    0.0000 C   0  0  0  0  0  0  0  0  0  0  0  0
   -0.6284   -0.6979    0.0000 C   0  0  0  0  0  0  0  0  0  0  0  0
   -1.1831   -3.2299    0.0000 C   0  0  0  0  0  0  0  0  0  0  0  0
    0.6411   -0.2854    0.0000 C   0  0  0  0  0  0  0  0  0  0  0  0
   -0.3984   -3.4849    0.0000 C   0  0  0  0  0  0  0  0  0  0  0  0
    0.0865   -2.8174    0.0000 C   0  0  0  0  0  0  0  0  0  0  0  0
    0.6411   -1.1104    0.0000 C   0  0  0  0  0  0  0  0  0  0  0  0
    1.3556    0.1271    0.0000 C   0  0  0  0  0  0  0  0  0  0  0  0
   -0.3984   -2.1500    0.0000 C   0  0  0  0  0  0  0  0  0  0  0  0
    2.0701   -1.1104    0.0000 C   0  0  0  0  0  0  0  0  0  0  0  0
    2.7845   -1.5229    0.0000 N   0  0  0  0  0  0  0  0  0  0  0  0
   -0.1435   -0.0305    0.0000 N   0  0  0  0  0  0  0  0  0  0  0  0
    1.3556   -1.5229    0.0000 N   0  0  0  0  0  0  0  0  0  0  0  0
    2.0701   -0.2854    0.0000 N   0  0  0  0  0  0  0  0  0  0  0  0
   -5.4464   -3.6780    0.0000 N   0  0  0  0  0  0  0  0  0  0  0  0
   -0.1435   -1.3654    0.0000 N   0  0  0  0  0  0  0  0  0  0  0  0
   -0.1435   -4.2695    0.0000 O   0  0  0  0  0  0  0  0  0  0  0  0
    0.9115   -2.8174    0.0000 O   0  0  0  0  0  0  0  0  0  0  0  0
    1.3556    0.9521    0.0000 O   0  0  0  0  0  0  0  0  0  0  0  0
   -6.7813   -4.6479    0.0000 O   0  0  0  0  0  0  0  0  0  0  0  0
   -6.5988   -3.4955    0.0000 O   0  0  0  0  0  0  0  0  0  0  0  0
   -5.6289   -4.8304    0.0000 O   0  0  0  0  0  0  0  0  0  0  0  0
   -4.3572   -3.2599    0.0000 O   0  0  0  0  0  0  0  0  0  0  0  0
   -5.0283   -4.7673    0.0000 O   0  0  0  0  0  0  0  0  0  0  0  0
   -3.7565   -3.1968    0.0000 O   0  0  0  0  0  0  0  0  0  0  0  0
   -2.7867   -4.5317    0.0000 O   0  0  0  0  0  0  0  0  0  0  0  0
   -2.6042   -3.3793    0.0000 O   0  0  0  0  0  0  0  0  0  0  0  0
   -1.1831   -2.4049    0.0000 O   0  0  0  0  0  0  0  0  0  0  0  0
   -3.9391   -4.3492    0.0000 O   0  0  0  0  0  0  0  0  0  0  0  0
   -6.1138   -4.1630    0.0000 P   0  0  0  0  0  0  0  0  0  0  0  0
   -4.6927   -4.0136    0.0000 P   0  0  0  0  0  0  0  0  0  0  0  0
   -3.2716   -3.8642    0.0000 P   0  0  0  0  0  0  0  0  0  0  0  0
  3  1  1  1
  5  3  1  0
  6  5  1  0
  7  4  2  0
  8  4  1  0
  9  6  1  0
 11 10  2  0
 12  2  2  0
 12  4  1  0
 13  7  1  0
 13 10  1  0
 14  8  2  0
 14 10  1  0
 16  2  1  0
 16  7  1  0
  9 16  1  1
  5 17  1  6
  6 18  1  6
 19  8  1  0
 27  1  1  0
 28  3  1  0
 28  9  1  0
 30 15  1  0
 30 20  2  0
 30 21  1  0
 30 22  1  0
 31 15  1  0
 31 23  2  0
 31 24  1  0
 31 29  1  0
 32 25  1  0
 32 26  2  0
 32 27  1  0
 32 29  1  0
M  END
>  <ALOGPS_LOGP>  (14) 
-1.0

>  <ALOGPS_LOGS>  (14) 
-1.87

>  <ALOGPS_SOLUBILITY>  (14) 
7.00e+00 g/l

>  <DATABASE_NAME>  (14) 
drugbank

>  <DRUGBANK_ID>  (14) 
DB02082

>  <DRUG_GROUPS>  (14) 
experimental

>  <EXACT_MASS>  (14) 
522.006644196

>  <FORMULA>  (14) 
C10H17N6O13P3

>  <GENERIC_NAME>  (14) 
Phosphoaminophosphonic Acid Guanylate Ester

>  <ID>  (14) 


>  <INCHI_IDENTIFIER>  (14) 
InChI=1S/C10H17N6O13P3/c11-10-13-7-4(8(19)14-10)12-2-16(7)9-6(18)5(17)3(28-9)1-27-32(25,26)29-31(23,24)15-30(20,21)22/h2-3,5-6,9,17-18H,1H2,(H,25,26)(H3,11,13,14,19)(H4,15,20,21,22,23,24)/t3-,5-,6-,9-/m1/s1

>  <INCHI_KEY>  (14) 
UQABYHGXWYXDTK-UUOKFMHZSA-N

>  <INTERNATIONAL_BRANDS>  (14) 
nan

>  <JCHEM_ACCEPTOR_COUNT>  (14) 
15

>  <JCHEM_ATOM_COUNT>  (14) 
nan

>  <JCHEM_AVERAGE_POLARIZABILITY>  (14) 
40.59501634247092

>  <JCHEM_BIOAVAILABILITY>  (14) 
0

>  <JCHEM_DONOR_COUNT>  (14) 
10

>  <JCHEM_FORMAL_CHARGE>  (14) 
0

>  <JCHEM_GHOSE_FILTER>  (14) 
0

>  <JCHEM_IUPAC>  (14) 
({[({[(2R,3S,4R,5R)-3,4-dihydroxy-5-(6-hydroxy-2-imino-3,9-dihydro-2H-purin-9-yl)oxolan-2-yl]methoxy}(hydroxy)phosphoryl)oxy](hydroxy)phosphoryl}amino)phosphonic acid

>  <JCHEM_LOGP>  (14) 
-4.293400625277916

>  <JCHEM_MDDR_LIKE_RULE>  (14) 
1

>  <JCHEM_NUMBER_OF_RINGS>  (14) 
3

>  <JCHEM_PHYSIOLOGICAL_CHARGE>  (14) 
-4

>  <JCHEM_PKA>  (14) 
1.4538501019740977

>  <JCHEM_PKA_STRONGEST_ACIDIC>  (14) 
0.3446860050801459

>  <JCHEM_PKA_STRONGEST_BASIC>  (14) 
3.5781220545987917

>  <JCHEM_POLAR_SURFACE_AREA>  (14) 
298.6

>  <JCHEM_REFRACTIVITY>  (14) 
109.77069999999995

>  <JCHEM_ROTATABLE_BOND_COUNT>  (14) 
8

>  <JCHEM_RULE_OF_FIVE>  (14) 
0

>  <JCHEM_TRADITIONAL_IUPAC>  (14) 
({[(2R,3S,4R,5R)-3,4-dihydroxy-5-(6-hydroxy-2-imino-3H-purin-9-yl)oxolan-2-yl]methoxy(hydroxy)phosphoryl}oxy(hydroxy)phosphoryl)aminophosphonic acid

>  <JCHEM_VEBER_RULE>  (14) 
0

>  <MOLECULAR_WEIGHT>  (14) 
522.1957

>  <PRODUCTS>  (14) 
nan

>  <SALTS>  (14) 
nan

>  <SECONDARY_ACCESSION_NUMBERS>  (14) 
EXPT01658

>  <SMILES>  (14) 
[H][C@]1(COP(O)(=O)OP(O)(=O)NP(O)(O)=O)O[C@@]([H])(N2C=NC3=C2NC(=N)N=C3O)[C@]([H])(O)[C@]1([H])O

>  <SYNONYMS>  (14) 
nan

>  <ECFP_FP>  (14) 
<rdkit.DataStructs.cDataStructs.ExplicitBitVect object at 0xa266f9e90>

>  <pki_G>  (14) 
5.889774

>  <pki_D>  (14) 
5.842357

>  <pki_B>  (14) 
5.37836

>  <pki_A>  (14) 
5.547635

>  <SelB>  (14) 
0.511415

>  <SelA>  (14) 
0.34214

>  <SelD>  (14) 
0.047417

>  <AvgABSel>  (14) 
0.426777

>  <MACCS_FP>  (14) 
[0. 0. 0. 0. 0. 0. 0. 0. 0. 0. 0. 0. 0. 0. 0. 0. 0. 0. 0. 0. 0. 0. 0. 0.
 0. 1. 0. 0. 0. 1. 0. 0. 0. 0. 0. 0. 0. 0. 1. 0. 0. 0. 0. 1. 0. 0. 0. 0.
 1. 0. 0. 0. 0. 1. 1. 0. 0. 1. 0. 0. 0. 0. 1. 0. 0. 1. 0. 0. 0. 1. 1. 0.
 1. 0. 0. 1. 0. 1. 1. 1. 1. 0. 0. 1. 0. 1. 0. 0. 0. 1. 1. 1. 1. 0. 1. 1.
 1. 1. 1. 0. 0. 1. 1. 0. 0. 1. 1. 0. 0. 1. 1. 0. 1. 1. 0. 0. 0. 1. 0. 1.
 1. 1. 1. 0. 1. 1. 1. 1. 0. 0. 1. 1. 1. 1. 0. 1. 1. 1. 0. 1. 1. 0. 1. 1.
 0. 0. 1. 0. 1. 0. 1. 1. 1. 1. 0. 1. 1. 1. 1. 1. 0. 1. 1. 1. 1. 1. 0.]

>  <MACCS_pki_G>  (14) 
6.514837

>  <MACCS_pki_D>  (14) 
5.827654

>  <MACCS_pki_B>  (14) 
5.76428

>  <MACCS_pki_A>  (14) 
5.998302

>  <MACCS_SelB>  (14) 
0.750556

>  <MACCS_SelA>  (14) 
0.516535

>  <MACCS_SelD>  (14) 
0.687182

>  <MACCSAvgABSel>  (14) 
0.633546

>  <Pharm2D_FP>  (14) 
[0. 0. 0. ... 0. 0. 0.]

>  <Pharm2D_pki_G>  (14) 
6.41666

>  <Pharm2D_pki_D>  (14) 
6.156961

>  <Pharm2D_pki_B>  (14) 
5.692192

>  <Pharm2D_pki_A>  (14) 
5.623583

>  <Pharm2D_SelB>  (14) 
0.724468

>  <Pharm2D_SelA>  (14) 
0.793076

>  <Pharm2D_SelD>  (14) 
0.259698

>  <Pharm2DAvgABSel>  (14) 
0.758772

>  <QED>  (14) 
0.159926

$$$$
DB08861
     RDKit          2D

 44 46  0  0  0  0  0  0  0  0999 V2000
   -2.5353    2.2702    0.0000 S   0  0  0  0  0  0  0  0  0  0  0  0
   -2.5353    1.4452    0.0000 S   0  0  0  0  0  0  0  0  0  0  0  0
   -1.1064    1.4452    0.0000 C   0  0  0  0  0  0  0  0  0  0  0  0
   -1.1064    2.2702    0.0000 C   0  0  0  0  0  0  0  0  0  0  0  0
   -1.8209    2.6827    0.0000 C   0  0  0  0  0  0  0  0  0  0  0  0
   -3.2498    0.2078    0.0000 C   0  0  0  0  0  0  0  0  0  0  0  0
   -2.5353   -0.2871    0.0000 N   0  0  0  0  0  0  0  0  0  0  0  0
   -1.1064   -0.2046    0.0000 C   0  0  0  0  0  0  0  0  0  0  0  0
   -0.3918    0.2078    0.0000 C   0  0  0  0  0  0  0  0  0  0  0  0
   -0.3918    1.0328    0.0000 N   0  0  0  0  0  0  0  0  0  0  0  0
   -2.5353   -1.0296    0.0000 C   0  0  0  0  0  0  0  0  0  0  0  0
   -1.8208   -1.4421    0.0000 C   0  0  0  0  0  0  0  0  0  0  0  0
   -1.1064   -1.0296    0.0000 N   0  0  0  0  0  0  0  0  0  0  0  0
   -1.8097    0.2014    0.0000 O   0  0  0  0  0  0  0  0  0  0  0  0
   -1.8097    1.0390    0.0000 O   0  0  0  0  0  0  0  0  0  0  0  0
   -0.3770    2.6827    0.0000 N   0  0  0  0  0  0  0  0  0  0  0  0
    0.3373    2.2702    0.0000 C   0  0  0  0  0  0  0  0  0  0  0  0
    1.0518    2.6827    0.0000 C   0  0  0  0  0  0  0  0  0  0  0  0
    1.7661    2.2702    0.0000 C   0  0  0  0  0  0  0  0  0  0  0  0
    2.4808    2.6827    0.0000 C   0  0  0  0  0  0  0  0  0  0  0  0
    3.2074    2.2631    0.0000 C   0  0  0  0  0  0  0  0  0  0  0  0
    3.9219    2.6754    0.0000 C   0  0  0  0  0  0  0  0  0  0  0  0
    3.9221    3.5004    0.0000 C   0  0  0  0  0  0  0  0  0  0  0  0
    3.1954    3.9201    0.0000 C   0  0  0  0  0  0  0  0  0  0  0  0
    2.4808    3.5077    0.0000 C   0  0  0  0  0  0  0  0  0  0  0  0
    1.0518    3.5077    0.0000 N   0  0  0  0  0  0  0  0  0  0  0  0
    0.3373    1.5691    0.0000 O   0  0  0  0  0  0  0  0  0  0  0  0
   -1.4083    3.3972    0.0000 C   0  0  0  0  0  0  0  0  0  0  0  0
   -2.2333    3.3972    0.0000 C   0  0  0  0  0  0  0  0  0  0  0  0
   -3.9542   -0.1990    0.0000 C   0  0  0  0  0  0  0  0  0  0  0  0
   -4.6539    0.2048    0.0000 O   0  0  0  0  0  0  0  0  0  0  0  0
   -3.9543   -1.0295    0.0000 O   0  0  0  0  0  0  0  0  0  0  0  0
   -3.2498   -1.4421    0.0000 O   0  0  0  0  0  0  0  0  0  0  0  0
    4.6538    3.9228    0.0000 O   0  0  0  0  0  0  0  0  0  0  0  0
   -1.8208   -2.2670    0.0000 C   0  0  0  0  0  0  0  0  0  0  0  0
   -2.5452   -2.6854    0.0000 C   0  0  0  0  0  0  0  0  0  0  0  0
   -3.2546   -2.2758    0.0000 C   0  0  0  0  0  0  0  0  0  0  0  0
   -3.9691   -2.6881    0.0000 C   0  0  0  0  0  0  0  0  0  0  0  0
   -3.9691   -3.5131    0.0000 C   0  0  0  0  0  0  0  0  0  0  0  0
   -3.2597   -3.9228    0.0000 C   0  0  0  0  0  0  0  0  0  0  0  0
   -2.5452   -3.5104    0.0000 C   0  0  0  0  0  0  0  0  0  0  0  0
   -3.6622    1.7472    0.0000 C   0  0  0  0  0  0  0  0  0  0  0  0
   -4.0747    1.0328    0.0000 C   0  0  0  0  0  0  0  0  0  0  0  0
   -3.2498    1.0328    0.0000 C   0  0  0  0  0  0  0  0  0  0  0  0
  1  2  1  0
  3  4  1  0
  4  5  1  0
  1  5  1  0
  2 44  1  0
 44  6  1  0
  6  7  1  0
  8  9  1  0
  9 10  1  0
  3 10  1  0
  7 11  1  0
 11 12  1  0
 12 13  1  0
 13  8  1  0
  8 14  2  0
  3 15  2  0
  4 16  1  1
 16 17  1  0
 17 18  1  0
 18 19  1  0
 19 20  1  0
 20 21  2  0
 21 22  1  0
 22 23  2  0
 23 24  1  0
 24 25  2  0
 20 25  1  0
 18 26  1  1
 17 27  2  0
  5 28  1  0
  5 29  1  0
  6 30  1  1
 30 31  1  0
 30 32  2  0
 11 33  2  0
 23 34  1  0
 12 35  1  1
 35 36  1  0
 36 37  2  0
 37 38  1  0
 38 39  2  0
 39 40  1  0
 40 41  2  0
 36 41  1  0
 43 44  1  0
 44 42  1  0
M  END
>  <ALOGPS_LOGP>  (15) 
0.59

>  <ALOGPS_LOGS>  (15) 
-5.01

>  <ALOGPS_SOLUBILITY>  (15) 
6.32e-03 g/l

>  <DATABASE_NAME>  (15) 
drugbank

>  <DRUGBANK_ID>  (15) 
DB08861

>  <DRUG_GROUPS>  (15) 
experimental

>  <EXACT_MASS>  (15) 
645.229090964

>  <FORMULA>  (15) 
C30H39N5O7S2

>  <GENERIC_NAME>  (15) 
DPDPE

>  <ID>  (15) 


>  <INCHI_IDENTIFIER>  (15) 
InChI=1S/C30H39N5O7S2/c1-29(2)23(34-25(38)20(31)14-18-10-12-19(36)13-11-18)27(40)32-16-22(37)33-21(15-17-8-6-5-7-9-17)26(39)35-24(28(41)42)30(3,4)44-43-29/h5-13,20-21,23-24,36H,14-16,31H2,1-4H3,(H,32,40)(H,33,37)(H,34,38)(H,35,39)(H,41,42)/t20-,21-,23-,24-/m0/s1

>  <INCHI_KEY>  (15) 
MCMMCRYPQBNCPH-WMIMKTLMSA-N

>  <INTERNATIONAL_BRANDS>  (15) 
nan

>  <JCHEM_ACCEPTOR_COUNT>  (15) 
8

>  <JCHEM_ATOM_COUNT>  (15) 
83

>  <JCHEM_AVERAGE_POLARIZABILITY>  (15) 
65.63689904572192

>  <JCHEM_BIOAVAILABILITY>  (15) 
0

>  <JCHEM_DONOR_COUNT>  (15) 
7

>  <JCHEM_FORMAL_CHARGE>  (15) 
0

>  <JCHEM_GHOSE_FILTER>  (15) 
0

>  <JCHEM_IUPAC>  (15) 
(4S,7S,13S)-13-[(2S)-2-amino-3-(4-hydroxyphenyl)propanamido]-7-benzyl-3,3,14,14-tetramethyl-6,9,12-trioxo-1,2-dithia-5,8,11-triazacyclotetradecane-4-carboxylic acid

>  <JCHEM_LOGP>  (15) 
-1.0190731151831478

>  <JCHEM_MDDR_LIKE_RULE>  (15) 
1

>  <JCHEM_NUMBER_OF_RINGS>  (15) 
3

>  <JCHEM_PHYSIOLOGICAL_CHARGE>  (15) 
0

>  <JCHEM_PKA>  (15) 
9.491696214551192

>  <JCHEM_PKA_STRONGEST_ACIDIC>  (15) 
3.385301802542697

>  <JCHEM_PKA_STRONGEST_BASIC>  (15) 
7.726557988190343

>  <JCHEM_POLAR_SURFACE_AREA>  (15) 
199.94999999999996

>  <JCHEM_REFRACTIVITY>  (15) 
168.07109999999997

>  <JCHEM_ROTATABLE_BOND_COUNT>  (15) 
7

>  <JCHEM_RULE_OF_FIVE>  (15) 
0

>  <JCHEM_TRADITIONAL_IUPAC>  (15) 
(4S,7S,13S)-13-[(2S)-2-amino-3-(4-hydroxyphenyl)propanamido]-7-benzyl-3,3,14,14-tetramethyl-6,9,12-trioxo-1,2-dithia-5,8,11-triazacyclotetradecane-4-carboxylic acid

>  <JCHEM_VEBER_RULE>  (15) 
0

>  <MOLECULAR_WEIGHT>  (15) 
645.79

>  <PRODUCTS>  (15) 
nan

>  <SALTS>  (15) 
nan

>  <SECONDARY_ACCESSION_NUMBERS>  (15) 
nan

>  <SMILES>  (15) 
CC1(C)SSC(C)(C)[C@@H](NC(=O)[C@@H](N)CC2=CC=C(O)C=C2)C(=O)NCC(=O)N[C@@H](CC2=CC=CC=C2)C(=O)N[C@H]1C(O)=O

>  <SYNONYMS>  (15) 
(D-Pen2,D-Pen5)-Enkephalin; [D-Pen2-D-Pen5]-enkephaline; 2,5-Pen-enkephalin; cyclo-[D-Pen2,5]-enkephalin; D-penicillamine-(2,5)-enkephalin; L-tyrosyl-3-mercapto-D-valylglycyl-L-phenylalanyl-3-mercapto-D-valine, cyclic (2-5)-disulfide

>  <ECFP_FP>  (15) 
<rdkit.DataStructs.cDataStructs.ExplicitBitVect object at 0xa26b5dd50>

>  <pki_G>  (15) 
5.769482

>  <pki_D>  (15) 
5.844335

>  <pki_B>  (15) 
5.326643

>  <pki_A>  (15) 
5.587684

>  <SelB>  (15) 
0.442839

>  <SelA>  (15) 
0.181798

>  <SelD>  (15) 
-0.074853

>  <AvgABSel>  (15) 
0.312318

>  <MACCS_FP>  (15) 
[0. 0. 0. 0. 0. 0. 0. 0. 0. 0. 0. 0. 0. 0. 1. 0. 0. 0. 0. 0. 0. 0. 0. 0.
 0. 0. 0. 0. 0. 0. 0. 0. 0. 0. 0. 0. 1. 0. 0. 0. 0. 0. 0. 0. 0. 0. 0. 0.
 0. 0. 0. 0. 0. 0. 1. 0. 0. 0. 0. 0. 0. 0. 0. 0. 0. 0. 1. 1. 0. 0. 0. 0.
 0. 0. 1. 0. 0. 0. 0. 1. 0. 1. 1. 0. 1. 0. 0. 0. 1. 0. 1. 1. 1. 0. 0. 1.
 0. 0. 0. 0. 1. 1. 0. 0. 1. 0. 0. 0. 0. 0. 1. 1. 1. 1. 0. 0. 0. 1. 0. 0.
 1. 1. 0. 1. 1. 1. 0. 1. 1. 0. 0. 1. 1. 1. 0. 0. 1. 1. 0. 1. 1. 1. 1. 1.
 0. 1. 1. 0. 0. 1. 1. 1. 1. 1. 1. 1. 1. 1. 1. 1. 1. 1. 1. 1. 1. 1. 0.]

>  <MACCS_pki_G>  (15) 
5.872915

>  <MACCS_pki_D>  (15) 
5.981976

>  <MACCS_pki_B>  (15) 
5.509946

>  <MACCS_pki_A>  (15) 
6.206417

>  <MACCS_SelB>  (15) 
0.36297

>  <MACCS_SelA>  (15) 
-0.333502

>  <MACCS_SelD>  (15) 
-0.109061

>  <MACCSAvgABSel>  (15) 
0.014734

>  <Pharm2D_FP>  (15) 
[0. 0. 0. ... 0. 0. 0.]

>  <Pharm2D_pki_G>  (15) 
6.627151

>  <Pharm2D_pki_D>  (15) 
5.744189

>  <Pharm2D_pki_B>  (15) 
5.953092

>  <Pharm2D_pki_A>  (15) 
5.38112

>  <Pharm2D_SelB>  (15) 
0.674059

>  <Pharm2D_SelA>  (15) 
1.246031

>  <Pharm2D_SelD>  (15) 
0.882962

>  <Pharm2DAvgABSel>  (15) 
0.960045

>  <QED>  (15) 
0.214099

$$$$
DB00684
     RDKit          2D

 32 34  0  0  1  0  0  0  0  0999 V2000
   12.1679  -11.8385    0.0000 C   0  0  0  0  0  0  0  0  0  0  0  0
   12.1679  -12.6635    0.0000 C   0  0  0  0  0  0  0  0  0  0  0  0
   12.8824  -13.0760    0.0000 C   0  0  0  0  0  0  0  0  0  0  0  0
   13.5969  -12.6635    0.0000 C   0  0  0  0  0  0  0  0  0  0  0  0
   13.5969  -11.8385    0.0000 C   0  0  0  0  0  0  0  0  0  0  0  0
   12.8824  -11.4260    0.0000 O   0  0  0  0  0  0  0  0  0  0  0  0
   11.4535  -11.4260    0.0000 C   0  0  0  0  0  0  0  0  0  0  0  0
   10.7490  -11.8329    0.0000 O   0  0  0  0  0  0  0  0  0  0  0  0
   11.4535  -13.0760    0.0000 O   0  0  0  0  0  0  0  0  0  0  0  0
   12.8824  -13.9009    0.0000 N   0  0  0  0  0  0  0  0  0  0  0  0
   14.3224  -13.0825    0.0000 O   0  0  0  0  0  0  0  0  0  0  0  0
   14.3224  -11.4195    0.0000 O   0  0  0  0  0  0  0  0  0  0  0  0
   15.0142  -11.0135    0.0000 C   0  0  0  0  0  0  0  0  0  0  0  0
   15.7316  -11.4209    0.0000 C   0  0  0  0  0  0  0  0  0  0  0  0
   16.4431  -11.0034    0.0000 C   0  0  0  0  0  0  0  0  0  0  0  0
   16.4372  -10.1784    0.0000 C   0  0  0  0  0  0  0  0  0  0  0  0
   15.7199   -9.7709    0.0000 C   0  0  0  0  0  0  0  0  0  0  0  0
   15.0084  -10.1885    0.0000 C   0  0  0  0  0  0  0  0  0  0  0  0
   15.7375  -12.2507    0.0000 N   0  0  0  0  0  0  0  0  0  0  0  0
   17.1290   -9.7723    0.0000 N   0  0  0  0  0  0  0  0  0  0  0  0
   14.2954   -9.7836    0.0000 O   0  0  0  0  0  0  0  0  0  0  0  0
   15.7140   -8.9510    0.0000 O   0  0  0  0  0  0  0  0  0  0  0  0
   16.4266   -8.5328    0.0000 C   0  0  0  0  0  0  0  0  0  0  0  0
   17.1389   -8.9373    0.0000 O   0  0  0  0  0  0  0  0  0  0  0  0
   17.8504   -8.5198    0.0000 C   0  0  0  0  0  0  0  0  0  0  0  0
   17.8446   -7.6948    0.0000 C   0  0  0  0  0  0  0  0  0  0  0  0
   17.1323   -7.2903    0.0000 C   0  0  0  0  0  0  0  0  0  0  0  0
   16.4207   -7.7078    0.0000 C   0  0  0  0  0  0  0  0  0  0  0  0
   18.5834   -8.9358    0.0000 C   0  0  0  0  0  0  0  0  0  0  0  0
   18.5894   -9.7759    0.0000 N   0  0  0  0  0  0  0  0  0  0  0  0
   18.5594   -7.2752    0.0000 O   0  0  0  0  0  0  0  0  0  0  0  0
   15.7028   -7.3000    0.0000 N   0  0  0  0  0  0  0  0  0  0  0  0
  1  2  1  0
  2  3  1  0
  3  4  1  0
  4  5  1  0
  5  6  1  0
  1  6  1  0
  1  7  1  1
  7  8  1  0
  2  9  1  6
  3 10  1  1
  4 11  1  6
  5 12  1  6
 13 12  1  6
 13 14  1  0
 14 15  1  0
 15 16  1  0
 16 17  1  0
 17 18  1  0
 13 18  1  0
 14 19  1  1
 16 20  1  1
 18 21  1  1
 17 22  1  6
 23 22  1  6
 23 24  1  0
 24 25  1  0
 25 26  1  0
 26 27  1  0
 27 28  1  0
 23 28  1  0
 25 29  1  1
 29 30  1  0
 26 31  1  6
 28 32  1  6
M  END
>  <ALOGPS_LOGP>  (16) 
-2.98

>  <ALOGPS_LOGS>  (16) 
-0.94

>  <ALOGPS_SOLUBILITY>  (16) 
5.37e+01 g/l

>  <DATABASE_NAME>  (16) 
drugbank

>  <DRUGBANK_ID>  (16) 
DB00684

>  <DRUG_GROUPS>  (16) 
approved; investigational

>  <EXACT_MASS>  (16) 
467.259127807

>  <FORMULA>  (16) 
C18H37N5O9

>  <GENERIC_NAME>  (16) 
Tobramycin

>  <ID>  (16) 
 

>  <INCHI_IDENTIFIER>  (16) 
InChI=1S/C18H37N5O9/c19-3-9-8(25)2-7(22)17(29-9)31-15-5(20)1-6(21)16(14(15)28)32-18-13(27)11(23)12(26)10(4-24)30-18/h5-18,24-28H,1-4,19-23H2/t5-,6+,7+,8-,9+,10+,11-,12+,13+,14-,15+,16-,17+,18+/m0/s1

>  <INCHI_KEY>  (16) 
NLVFBUXFDBBNBW-PBSUHMDJSA-N

>  <INTERNATIONAL_BRANDS>  (16) 
Aktob; Alveoterol; Amgy; Bactob; Belbarmicina; Bideon Biotic; Bioptic; Bramitob; Gernebcin; Nebcin; Obracin; Tobracin; Tobramaxin

>  <JCHEM_ACCEPTOR_COUNT>  (16) 
14

>  <JCHEM_ATOM_COUNT>  (16) 
nan

>  <JCHEM_AVERAGE_POLARIZABILITY>  (16) 
47.182264548541966

>  <JCHEM_BIOAVAILABILITY>  (16) 
0

>  <JCHEM_DONOR_COUNT>  (16) 
10

>  <JCHEM_FORMAL_CHARGE>  (16) 
0

>  <JCHEM_GHOSE_FILTER>  (16) 
0

>  <JCHEM_IUPAC>  (16) 
(2S,3R,4S,5S,6R)-4-amino-2-{[(1S,2S,3R,4S,6R)-4,6-diamino-3-{[(2R,3R,5S,6R)-3-amino-6-(aminomethyl)-5-hydroxyoxan-2-yl]oxy}-2-hydroxycyclohexyl]oxy}-6-(hydroxymethyl)oxane-3,5-diol

>  <JCHEM_LOGP>  (16) 
-6.477500564666668

>  <JCHEM_MDDR_LIKE_RULE>  (16) 
1

>  <JCHEM_NUMBER_OF_RINGS>  (16) 
3

>  <JCHEM_PHYSIOLOGICAL_CHARGE>  (16) 
5

>  <JCHEM_PKA>  (16) 
13.132781993910879

>  <JCHEM_PKA_STRONGEST_ACIDIC>  (16) 
12.542545735150494

>  <JCHEM_PKA_STRONGEST_BASIC>  (16) 
9.826251293406527

>  <JCHEM_POLAR_SURFACE_AREA>  (16) 
268.16999999999996

>  <JCHEM_REFRACTIVITY>  (16) 
106.69489999999998

>  <JCHEM_ROTATABLE_BOND_COUNT>  (16) 
6

>  <JCHEM_RULE_OF_FIVE>  (16) 
0

>  <JCHEM_TRADITIONAL_IUPAC>  (16) 
tobramycin

>  <JCHEM_VEBER_RULE>  (16) 
0

>  <MOLECULAR_WEIGHT>  (16) 
467.5145

>  <PRODUCTS>  (16) 
Aj-tobramycin; Apo-tobramycin; Bethkis; Jamp-tobramycin; Kitabis Pak; Nebcin Inj 1.2gm/30ml; Nebcin Inj 10mg/ml; Nebcin Inj 10mg/ml (vantage Vial); Nebcin Inj 40mg/ml; Nebcin Inj 60mg; Nebcin Inj 80mg; PMS-tobramycin 0.3% Ophthalmic Solution; Sandoz Tobramycin 0.3%; TOBI Podhaler; Teva-tobramycin; Tobi; Tobi Podhaler; TobraDex; Tobradex; Tobradex ST; Tobraflex; Tobramycin; Tobramycin Inhalation Solution; Tobramycin Inhalation Solution Pak; Tobramycin Inhalation Solution USP; Tobramycin Injection; Tobramycin Injection USP; Tobramycin Injection, USP; Tobramycin Ophthalmic Solution; Tobramycin Ophthalmic Solution USP 0.3%; Tobramycin Sulfate; Tobramycin and Dexamethasone; Tobramycin for Injection; Tobramycin for Injection U.S.P.; Tobramycin in Sodium Chloride; Tobrex; Tobrexan; Zylet

>  <SALTS>  (16) 
Tobramycin hydrochloride; Tobramycin sulfate

>  <SECONDARY_ACCESSION_NUMBERS>  (16) 
APRD00582

>  <SMILES>  (16) 
NC[C@H]1O[C@H](O[C@@H]2[C@@H](N)C[C@@H](N)[C@H](O[C@H]3O[C@H](CO)[C@@H](O)[C@H](N)[C@H]3O)[C@H]2O)[C@H](N)C[C@@H]1O

>  <SYNONYMS>  (16) 
3'-Deoxykanamycin B; Nebramycin 6; O-3-Amino-3-deoxy-alpha-D-glucopyranosyl-(1-4)-O-(2,6-diamino-2,3,6-trideoxy-alpha-D-ribohexopyranosyl-(1-4))-2-deoxy-D-streptamine; Tobramicina; Tobramycin; Tobramycine; Tobramycinum

>  <ECFP_FP>  (16) 
<rdkit.DataStructs.cDataStructs.ExplicitBitVect object at 0xa26616760>

>  <pki_G>  (16) 
5.755915

>  <pki_D>  (16) 
5.862512

>  <pki_B>  (16) 
5.480984

>  <pki_A>  (16) 
5.022814

>  <SelB>  (16) 
0.274931

>  <SelA>  (16) 
0.733101

>  <SelD>  (16) 
-0.106597

>  <AvgABSel>  (16) 
0.504016

>  <MACCS_FP>  (16) 
[0. 0. 0. 0. 0. 0. 0. 0. 0. 0. 0. 0. 0. 0. 0. 0. 0. 0. 0. 0. 0. 0. 0. 0.
 0. 0. 0. 0. 0. 0. 0. 0. 0. 0. 0. 0. 0. 0. 0. 0. 0. 0. 0. 0. 0. 0. 0. 0.
 0. 0. 0. 0. 0. 1. 1. 0. 0. 1. 0. 0. 0. 0. 0. 0. 0. 0. 0. 0. 0. 0. 0. 0.
 1. 0. 0. 0. 0. 0. 0. 0. 1. 0. 1. 0. 1. 0. 0. 0. 0. 1. 1. 1. 0. 0. 0. 1.
 0. 1. 1. 0. 1. 0. 0. 0. 1. 0. 0. 0. 0. 1. 0. 1. 0. 0. 0. 0. 0. 0. 0. 0.
 1. 0. 0. 1. 0. 0. 1. 1. 0. 1. 0. 1. 1. 1. 0. 0. 0. 1. 1. 1. 1. 0. 1. 1.
 0. 1. 1. 0. 0. 0. 1. 1. 1. 1. 0. 1. 1. 1. 1. 1. 0. 1. 0. 1. 1. 1. 0.]

>  <MACCS_pki_G>  (16) 
6.198538

>  <MACCS_pki_D>  (16) 
5.858533

>  <MACCS_pki_B>  (16) 
6.113452

>  <MACCS_pki_A>  (16) 
6.041834

>  <MACCS_SelB>  (16) 
0.085086

>  <MACCS_SelA>  (16) 
0.156704

>  <MACCS_SelD>  (16) 
0.340005

>  <MACCSAvgABSel>  (16) 
0.120895

>  <Pharm2D_FP>  (16) 
[0. 0. 0. ... 0. 0. 0.]

>  <Pharm2D_pki_G>  (16) 
6.586306

>  <Pharm2D_pki_D>  (16) 
5.906264

>  <Pharm2D_pki_B>  (16) 
5.720499

>  <Pharm2D_pki_A>  (16) 
5.128721

>  <Pharm2D_SelB>  (16) 
0.865807

>  <Pharm2D_SelA>  (16) 
1.457586

>  <Pharm2D_SelD>  (16) 
0.680043

>  <Pharm2DAvgABSel>  (16) 
1.161697

>  <QED>  (16) 
0.174007

$$$$
DB02865
     RDKit          2D

 16 16  0  0  1  0  0  0  0  0999 V2000
    2.1434    1.2375    0.0000 N   0  0  0  0  0  0  0  0  0  0  0  0
    1.4289    0.8250    0.0000 C   0  0  0  0  0  0  0  0  0  0  0  0
    1.4289    0.0000    0.0000 C   0  0  0  0  0  0  0  0  0  0  0  0
    2.1434   -0.4125    0.0000 O   0  0  0  0  0  0  0  0  0  0  0  0
    0.7145   -0.4125    0.0000 O   0  0  0  0  0  0  0  0  0  0  0  0
    0.0000    0.0000    0.0000 C   0  0  0  0  0  0  0  0  0  0  0  0
   -0.7145   -0.4125    0.0000 C   0  0  0  0  0  0  0  0  0  0  0  0
   -1.4289    0.0000    0.0000 O   0  0  0  0  0  0  0  0  0  0  0  0
    0.0000    0.8250    0.0000 C   0  0  0  0  0  0  0  0  0  0  0  0
   -0.7145    1.2375    0.0000 O   0  0  0  0  0  0  0  0  0  0  0  0
   -1.4289    0.8250    0.0000 P   0  0  0  0  0  0  0  0  0  0  0  0
   -2.1434    0.4125    0.0000 O   0  0  0  0  0  0  0  0  0  0  0  0
   -1.8414    1.5395    0.0000 O   0  0  0  0  0  0  0  0  0  0  0  0
   -1.0164    0.1105    0.0000 O   0  0  0  0  0  0  0  0  0  0  0  0
    0.7145    1.2375    0.0000 C   0  0  0  0  0  0  0  0  0  0  0  0
    0.7145    2.0625    0.0000 O   0  0  0  0  0  0  0  0  0  0  0  0
  2  1  1  1
  2  3  1  0
  3  4  1  6
  3  5  1  0
  5  6  1  0
  6  7  1  6
  7  8  1  0
  6  9  1  0
  9 10  1  1
 10 11  1  0
 11 12  1  0
 11 13  1  0
 11 14  2  0
  9 15  1  0
  2 15  1  0
 15 16  1  6
M  END
>  <ALOGPS_LOGP>  (17) 
-2.61

>  <ALOGPS_LOGS>  (17) 
-0.83

>  <ALOGPS_SOLUBILITY>  (17) 
3.86e+01 g/l

>  <DATABASE_NAME>  (17) 
drugbank

>  <DRUGBANK_ID>  (17) 
DB02865

>  <DRUG_GROUPS>  (17) 
experimental

>  <EXACT_MASS>  (17) 
259.045702941

>  <FORMULA>  (17) 
C6H14NO8P

>  <GENERIC_NAME>  (17) 
Glucosamine 4-Phosphate

>  <ID>  (17) 


>  <INCHI_IDENTIFIER>  (17) 
InChI=1S/C6H14NO8P/c7-3-4(9)5(15-16(11,12)13)2(1-8)14-6(3)10/h2-6,8-10H,1,7H2,(H2,11,12,13)/t2-,3-,4-,5-,6-/m1/s1

>  <INCHI_KEY>  (17) 
QWDBGVNDGYUIAC-QZABAPFNSA-N

>  <INTERNATIONAL_BRANDS>  (17) 
nan

>  <JCHEM_ACCEPTOR_COUNT>  (17) 
8

>  <JCHEM_ATOM_COUNT>  (17) 
nan

>  <JCHEM_AVERAGE_POLARIZABILITY>  (17) 
21.32218606850605

>  <JCHEM_BIOAVAILABILITY>  (17) 
1

>  <JCHEM_DONOR_COUNT>  (17) 
6

>  <JCHEM_FORMAL_CHARGE>  (17) 
0

>  <JCHEM_GHOSE_FILTER>  (17) 
0

>  <JCHEM_IUPAC>  (17) 
{[(2R,3S,4R,5R,6R)-5-amino-4,6-dihydroxy-2-(hydroxymethyl)oxan-3-yl]oxy}phosphonic acid

>  <JCHEM_LOGP>  (17) 
-4.176654765956165

>  <JCHEM_MDDR_LIKE_RULE>  (17) 
0

>  <JCHEM_NUMBER_OF_RINGS>  (17) 
1

>  <JCHEM_PHYSIOLOGICAL_CHARGE>  (17) 
-1

>  <JCHEM_PKA>  (17) 
5.9653387667750986

>  <JCHEM_PKA_STRONGEST_ACIDIC>  (17) 
0.9349921475808509

>  <JCHEM_PKA_STRONGEST_BASIC>  (17) 
8.528679612837132

>  <JCHEM_POLAR_SURFACE_AREA>  (17) 
162.70000000000002

>  <JCHEM_REFRACTIVITY>  (17) 
48.4538

>  <JCHEM_ROTATABLE_BOND_COUNT>  (17) 
3

>  <JCHEM_RULE_OF_FIVE>  (17) 
0

>  <JCHEM_TRADITIONAL_IUPAC>  (17) 
glucosamine 4-phosphate

>  <JCHEM_VEBER_RULE>  (17) 
0

>  <MOLECULAR_WEIGHT>  (17) 
259.151

>  <PRODUCTS>  (17) 
nan

>  <SALTS>  (17) 
nan

>  <SECONDARY_ACCESSION_NUMBERS>  (17) 
EXPT01634

>  <SMILES>  (17) 
N[C@H]1[C@H](O)O[C@H](CO)[C@@H](OP(O)(O)=O)[C@@H]1O

>  <SYNONYMS>  (17) 
nan

>  <ECFP_FP>  (17) 
<rdkit.DataStructs.cDataStructs.ExplicitBitVect object at 0xa26777d50>

>  <pki_G>  (17) 
5.733522

>  <pki_D>  (17) 
5.847334

>  <pki_B>  (17) 
5.333795

>  <pki_A>  (17) 
5.022814

>  <SelB>  (17) 
0.399727

>  <SelA>  (17) 
0.710708

>  <SelD>  (17) 
-0.113812

>  <AvgABSel>  (17) 
0.555217

>  <MACCS_FP>  (17) 
[0. 0. 0. 0. 0. 0. 0. 0. 0. 0. 0. 0. 0. 0. 0. 0. 0. 0. 0. 0. 0. 0. 0. 0.
 0. 0. 0. 0. 0. 1. 0. 0. 0. 0. 0. 0. 0. 0. 0. 0. 0. 0. 0. 1. 0. 0. 0. 0.
 1. 0. 0. 0. 0. 1. 1. 0. 0. 1. 0. 0. 0. 0. 0. 0. 0. 0. 0. 0. 0. 1. 0. 0.
 1. 0. 0. 0. 0. 0. 0. 0. 0. 0. 1. 0. 1. 0. 0. 0. 0. 1. 0. 1. 0. 0. 0. 1.
 0. 1. 1. 0. 0. 0. 1. 0. 0. 0. 1. 0. 0. 1. 0. 0. 1. 0. 0. 0. 0. 0. 0. 0.
 0. 0. 0. 1. 1. 0. 1. 1. 0. 0. 1. 1. 1. 1. 0. 0. 0. 1. 0. 1. 1. 0. 0. 1.
 0. 0. 1. 0. 1. 0. 1. 1. 1. 1. 0. 1. 1. 1. 1. 1. 0. 1. 0. 1. 1. 1. 0.]

>  <MACCS_pki_G>  (17) 
6.522378

>  <MACCS_pki_D>  (17) 
5.870375

>  <MACCS_pki_B>  (17) 
5.845191

>  <MACCS_pki_A>  (17) 
5.478472

>  <MACCS_SelB>  (17) 
0.677187

>  <MACCS_SelA>  (17) 
1.043906

>  <MACCS_SelD>  (17) 
0.652003

>  <MACCSAvgABSel>  (17) 
0.860547

>  <Pharm2D_FP>  (17) 
[0. 0. 0. ... 0. 0. 0.]

>  <Pharm2D_pki_G>  (17) 
5.813009

>  <Pharm2D_pki_D>  (17) 
5.708306

>  <Pharm2D_pki_B>  (17) 
5.398156

>  <Pharm2D_pki_A>  (17) 
4.846609

>  <Pharm2D_SelB>  (17) 
0.414854

>  <Pharm2D_SelA>  (17) 
0.9664

>  <Pharm2D_SelD>  (17) 
0.104704

>  <Pharm2DAvgABSel>  (17) 
0.690627

>  <QED>  (17) 
0.287306

$$$$
DB03111
     RDKit          2D

 16 16  0  0  1  0  0  0  0  0999 V2000
    0.7145   -0.4125    0.0000 C   0  0  0  0  0  0  0  0  0  0  0  0
    0.7145    0.4125    0.0000 C   0  0  0  0  0  0  0  0  0  0  0  0
    0.0000    0.8250    0.0000 O   0  0  0  0  0  0  0  0  0  0  0  0
    0.0000   -0.8250    0.0000 C   0  0  0  0  0  0  0  0  0  0  0  0
   -0.7145    0.4125    0.0000 C   0  0  0  0  0  0  0  0  0  0  0  0
   -0.7145   -0.4125    0.0000 C   0  0  0  0  0  0  0  0  0  0  0  0
    1.4289   -0.8250    0.0000 N   0  0  0  0  0  0  0  0  0  0  0  0
    0.0000   -1.6500    0.0000 O   0  0  0  0  0  0  0  0  0  0  0  0
   -1.4289   -0.8250    0.0000 O   0  0  0  0  0  0  0  0  0  0  0  0
   -1.4289    0.8250    0.0000 C   0  0  0  0  0  0  0  0  0  0  0  0
   -2.1434    0.4125    0.0000 O   0  0  0  0  0  0  0  0  0  0  0  0
    1.4289    0.8250    0.0000 O   0  0  0  0  0  0  0  0  0  0  0  0
    1.4289    2.4750    0.0000 O   0  0  0  0  0  0  0  0  0  0  0  0
    2.1434    2.0625    0.0000 O   0  0  0  0  0  0  0  0  0  0  0  0
    1.4289    1.6500    0.0000 P   0  0  0  0  0  0  0  0  0  0  0  0
    0.7144    2.0625    0.0000 O   0  0  0  0  0  0  0  0  0  0  0  0
  1  7  1  6
  2  1  1  0
  2 12  1  6
  2  3  1  0
  1  4  1  0
  4  8  1  1
  3  5  1  0
  5 10  1  1
  4  6  1  0
  5  6  1  0
  6  9  1  6
 10 11  1  0
 12 15  1  0
 15 13  2  0
 15 14  1  0
 15 16  1  0
M  END
>  <ALOGPS_LOGP>  (18) 
-2.59

>  <ALOGPS_LOGS>  (18) 
-0.87

>  <ALOGPS_SOLUBILITY>  (18) 
3.51e+01 g/l

>  <DATABASE_NAME>  (18) 
drugbank

>  <DRUGBANK_ID>  (18) 
DB03111

>  <DRUG_GROUPS>  (18) 
experimental

>  <EXACT_MASS>  (18) 
259.045702941

>  <FORMULA>  (18) 
C6H14NO8P

>  <GENERIC_NAME>  (18) 
Glucosamine 1-Phosphate

>  <ID>  (18) 


>  <INCHI_IDENTIFIER>  (18) 
InChI=1S/C6H14NO8P/c7-3-5(10)4(9)2(1-8)14-6(3)15-16(11,12)13/h2-6,8-10H,1,7H2,(H2,11,12,13)/t2-,3-,4-,5-,6-/m1/s1

>  <INCHI_KEY>  (18) 
YMJBYRVFGYXULK-QZABAPFNSA-N

>  <INTERNATIONAL_BRANDS>  (18) 
nan

>  <JCHEM_ACCEPTOR_COUNT>  (18) 
8

>  <JCHEM_ATOM_COUNT>  (18) 
nan

>  <JCHEM_AVERAGE_POLARIZABILITY>  (18) 
21.237894289193314

>  <JCHEM_BIOAVAILABILITY>  (18) 
1

>  <JCHEM_DONOR_COUNT>  (18) 
6

>  <JCHEM_FORMAL_CHARGE>  (18) 
0

>  <JCHEM_GHOSE_FILTER>  (18) 
0

>  <JCHEM_IUPAC>  (18) 
{[(2R,3R,4R,5S,6R)-3-amino-4,5-dihydroxy-6-(hydroxymethyl)oxan-2-yl]oxy}phosphonic acid

>  <JCHEM_LOGP>  (18) 
-4.175617677240273

>  <JCHEM_MDDR_LIKE_RULE>  (18) 
0

>  <JCHEM_NUMBER_OF_RINGS>  (18) 
1

>  <JCHEM_PHYSIOLOGICAL_CHARGE>  (18) 
-1

>  <JCHEM_PKA>  (18) 
6.242011904159365

>  <JCHEM_PKA_STRONGEST_ACIDIC>  (18) 
1.178810463362137

>  <JCHEM_PKA_STRONGEST_BASIC>  (18) 
8.692592555712746

>  <JCHEM_POLAR_SURFACE_AREA>  (18) 
162.7

>  <JCHEM_REFRACTIVITY>  (18) 
48.453799999999994

>  <JCHEM_ROTATABLE_BOND_COUNT>  (18) 
3

>  <JCHEM_RULE_OF_FIVE>  (18) 
0

>  <JCHEM_TRADITIONAL_IUPAC>  (18) 
-D-glucosamine 1-phosphate

>  <JCHEM_VEBER_RULE>  (18) 
0

>  <MOLECULAR_WEIGHT>  (18) 
259.151

>  <PRODUCTS>  (18) 
nan

>  <SALTS>  (18) 
nan

>  <SECONDARY_ACCESSION_NUMBERS>  (18) 
EXPT01631

>  <SMILES>  (18) 
N[C@@H]1[C@@H](O)[C@H](O)[C@@H](CO)O[C@@H]1OP(O)(O)=O

>  <SYNONYMS>  (18) 
nan

>  <ECFP_FP>  (18) 
<rdkit.DataStructs.cDataStructs.ExplicitBitVect object at 0xa267a6170>

>  <pki_G>  (18) 
5.733522

>  <pki_D>  (18) 
5.8175

>  <pki_B>  (18) 
5.327905

>  <pki_A>  (18) 
5.043578

>  <SelB>  (18) 
0.405617

>  <SelA>  (18) 
0.689944

>  <SelD>  (18) 
-0.083979

>  <AvgABSel>  (18) 
0.54778

>  <MACCS_FP>  (18) 
[0. 0. 0. 0. 0. 0. 0. 0. 0. 0. 0. 0. 0. 0. 0. 0. 0. 0. 0. 0. 0. 0. 0. 0.
 0. 0. 0. 0. 0. 1. 0. 0. 0. 0. 0. 0. 0. 0. 0. 0. 0. 0. 0. 1. 0. 0. 0. 0.
 1. 0. 0. 0. 0. 1. 1. 0. 0. 1. 0. 0. 0. 0. 0. 0. 0. 0. 0. 0. 0. 1. 0. 0.
 1. 0. 0. 0. 0. 0. 0. 0. 0. 0. 1. 0. 1. 0. 0. 0. 0. 1. 1. 1. 0. 0. 0. 1.
 0. 1. 1. 0. 0. 0. 1. 0. 0. 0. 1. 0. 0. 1. 0. 0. 1. 0. 0. 0. 0. 0. 0. 0.
 0. 0. 0. 1. 1. 0. 1. 1. 0. 0. 1. 1. 1. 1. 0. 0. 0. 1. 0. 1. 1. 0. 0. 1.
 0. 0. 1. 0. 1. 0. 1. 1. 1. 1. 0. 1. 1. 1. 1. 1. 0. 1. 0. 1. 1. 1. 0.]

>  <MACCS_pki_G>  (18) 
6.522378

>  <MACCS_pki_D>  (18) 
5.870375

>  <MACCS_pki_B>  (18) 
5.845191

>  <MACCS_pki_A>  (18) 
5.68

>  <MACCS_SelB>  (18) 
0.677187

>  <MACCS_SelA>  (18) 
0.842378

>  <MACCS_SelD>  (18) 
0.652003

>  <MACCSAvgABSel>  (18) 
0.759783

>  <Pharm2D_FP>  (18) 
[0. 0. 0. ... 0. 0. 0.]

>  <Pharm2D_pki_G>  (18) 
5.813009

>  <Pharm2D_pki_D>  (18) 
5.708306

>  <Pharm2D_pki_B>  (18) 
5.402406

>  <Pharm2D_pki_A>  (18) 
4.846609

>  <Pharm2D_SelB>  (18) 
0.410604

>  <Pharm2D_SelA>  (18) 
0.9664

>  <Pharm2D_SelD>  (18) 
0.104704

>  <Pharm2DAvgABSel>  (18) 
0.688502

>  <QED>  (18) 
0.287306

$$$$
DB13673
     RDKit          2D

 33 35  0  0  1  0  0  0  0  0999 V2000
   -0.0000    3.3000    0.0000 C   0  0  0  0  0  0  0  0  0  0  0  0
   -0.7145    6.1875    0.0000 C   0  0  0  0  0  0  0  0  0  0  0  0
   -3.5724    1.2375    0.0000 C   0  0  0  0  0  0  0  0  0  0  0  0
   -0.7145    3.7125    0.0000 C   0  0  0  0  0  0  0  0  0  0  0  0
   -0.0000    2.4750    0.0000 C   0  0  0  0  0  0  0  0  0  0  0  0
   -1.4289    5.7750    0.0000 C   0  0  0  0  0  0  0  0  0  0  0  0
   -2.8579    0.8250    0.0000 C   0  0  0  0  0  0  0  0  0  0  0  0
   -2.1434   -0.4125    0.0000 C   0  0  0  0  0  0  0  0  0  0  0  0
   -2.8579    4.9500    0.0000 C   0  0  0  0  0  0  0  0  0  0  0  0
   -2.8579    0.0000    0.0000 C   0  0  0  0  0  0  0  0  0  0  0  0
   -2.1434    6.1875    0.0000 C   0  0  0  0  0  0  0  0  0  0  0  0
   -2.8579    5.7750    0.0000 C   0  0  0  0  0  0  0  0  0  0  0  0
   -1.4289   -0.0000    0.0000 C   0  0  0  0  0  0  0  0  0  0  0  0
   -1.4289    2.4750    0.0000 C   0  0  0  0  0  0  0  0  0  0  0  0
   -1.4289    3.3000    0.0000 C   0  0  0  0  0  0  0  0  0  0  0  0
   -0.7145    2.0625    0.0000 C   0  0  0  0  0  0  0  0  0  0  0  0
   -2.1434    4.5375    0.0000 C   0  0  0  0  0  0  0  0  0  0  0  0
   -1.4289    0.8250    0.0000 C   0  0  0  0  0  0  0  0  0  0  0  0
   -0.7145    7.0125    0.0000 N   0  0  0  0  0  0  0  0  0  0  0  0
   -0.7145    4.5375    0.0000 N   0  0  0  0  0  0  0  0  0  0  0  0
    0.7145    2.0625    0.0000 N   0  0  0  0  0  0  0  0  0  0  0  0
   -2.1434   -1.2375    0.0000 N   0  0  0  0  0  0  0  0  0  0  0  0
   -3.5724    4.5375    0.0000 N   0  0  0  0  0  0  0  0  0  0  0  0
   -3.5724    2.0625    0.0000 O   0  0  0  0  0  0  0  0  0  0  0  0
   -3.5724   -0.4125    0.0000 O   0  0  0  0  0  0  0  0  0  0  0  0
   -2.1434    7.0125    0.0000 O   0  0  0  0  0  0  0  0  0  0  0  0
   -3.5724    6.1875    0.0000 O   0  0  0  0  0  0  0  0  0  0  0  0
   -0.7145   -0.4125    0.0000 O   0  0  0  0  0  0  0  0  0  0  0  0
   -2.1434    2.0625    0.0000 O   0  0  0  0  0  0  0  0  0  0  0  0
   -1.4289    4.9500    0.0000 O   0  0  0  0  0  0  0  0  0  0  0  0
   -2.1434    1.2375    0.0000 O   0  0  0  0  0  0  0  0  0  0  0  0
   -2.1434    3.7125    0.0000 O   0  0  0  0  0  0  0  0  0  0  0  0
   -0.7145    1.2375    0.0000 O   0  0  0  0  0  0  0  0  0  0  0  0
  4  1  1  0
  5  1  1  0
  6  2  1  1
  7  3  1  1
 10  7  1  0
 10  8  1  0
 11  6  1  0
 12  9  1  0
 12 11  1  0
 13  8  1  0
 15  4  1  0
 15 14  1  0
 16  5  1  0
 16 14  1  0
 17  9  1  0
 18 13  1  0
 19  2  1  0
  4 20  1  1
  5 21  1  1
  8 22  1  1
  9 23  1  6
 24  3  1  0
 10 25  1  6
 11 26  1  6
 12 27  1  1
 13 28  1  6
 14 29  1  1
 30  6  1  0
 30 17  1  0
 31  7  1  0
 31 18  1  0
 15 32  1  6
 17 32  1  6
 16 33  1  6
 18 33  1  6
M  END
>  <ALOGPS_LOGP>  (19) 
-3.01

>  <ALOGPS_LOGS>  (19) 
-0.80

>  <ALOGPS_SOLUBILITY>  (19) 
7.59e+01 g/l

>  <DATABASE_NAME>  (19) 
drugbank

>  <DRUGBANK_ID>  (19) 
DB13673

>  <DRUG_GROUPS>  (19) 
experimental

>  <EXACT_MASS>  (19) 
483.254042429

>  <FORMULA>  (19) 
C18H37N5O10

>  <GENERIC_NAME>  (19) 
Bekanamycin

>  <ID>  (19) 


>  <INCHI_IDENTIFIER>  (19) 
InChI=1S/C18H37N5O10/c19-2-6-11(26)12(27)9(23)17(30-6)32-15-4(20)1-5(21)16(14(15)29)33-18-13(28)8(22)10(25)7(3-24)31-18/h4-18,24-29H,1-3,19-23H2/t4-,5+,6+,7+,8-,9+,10+,11+,12+,13+,14-,15+,16-,17+,18+/m0/s1

>  <INCHI_KEY>  (19) 
SKKLOUVUUNMCJE-FQSMHNGLSA-N

>  <INTERNATIONAL_BRANDS>  (19) 
nan

>  <JCHEM_ACCEPTOR_COUNT>  (19) 
15

>  <JCHEM_ATOM_COUNT>  (19) 
nan

>  <JCHEM_AVERAGE_POLARIZABILITY>  (19) 
47.71634365313935

>  <JCHEM_BIOAVAILABILITY>  (19) 
0

>  <JCHEM_DONOR_COUNT>  (19) 
11

>  <JCHEM_FORMAL_CHARGE>  (19) 
0

>  <JCHEM_GHOSE_FILTER>  (19) 
0

>  <JCHEM_IUPAC>  (19) 
(2S,3R,4S,5S,6R)-4-amino-2-{[(1S,2S,3R,4S,6R)-4,6-diamino-3-{[(2R,3R,4R,5S,6R)-3-amino-6-(aminomethyl)-4,5-dihydroxyoxan-2-yl]oxy}-2-hydroxycyclohexyl]oxy}-6-(hydroxymethyl)oxane-3,5-diol

>  <JCHEM_LOGP>  (19) 
-7.167795245666667

>  <JCHEM_MDDR_LIKE_RULE>  (19) 
1

>  <JCHEM_NUMBER_OF_RINGS>  (19) 
3

>  <JCHEM_PHYSIOLOGICAL_CHARGE>  (19) 
5

>  <JCHEM_PKA>  (19) 
13.004888165599127

>  <JCHEM_PKA_STRONGEST_ACIDIC>  (19) 
12.488072502607203

>  <JCHEM_PKA_STRONGEST_BASIC>  (19) 
9.760920681985683

>  <JCHEM_POLAR_SURFACE_AREA>  (19) 
288.4

>  <JCHEM_REFRACTIVITY>  (19) 
107.79199999999999

>  <JCHEM_ROTATABLE_BOND_COUNT>  (19) 
6

>  <JCHEM_RULE_OF_FIVE>  (19) 
0

>  <JCHEM_TRADITIONAL_IUPAC>  (19) 
(2S,3R,4S,5S,6R)-4-amino-2-{[(1S,2S,3R,4S,6R)-4,6-diamino-3-{[(2R,3R,4R,5S,6R)-3-amino-6-(aminomethyl)-4,5-dihydroxyoxan-2-yl]oxy}-2-hydroxycyclohexyl]oxy}-6-(hydroxymethyl)oxane-3,5-diol

>  <JCHEM_VEBER_RULE>  (19) 
0

>  <MOLECULAR_WEIGHT>  (19) 
483.5139

>  <PRODUCTS>  (19) 
nan

>  <SALTS>  (19) 
nan

>  <SECONDARY_ACCESSION_NUMBERS>  (19) 
nan

>  <SMILES>  (19) 
[H][C@]1(N)C[C@@]([H])(N)[C@]([H])(O[C@@]2([H])O[C@]([H])(CO)[C@@]([H])(O)[C@]([H])(N)[C@@]2([H])O)[C@@]([H])(O)[C@]1([H])O[C@@]1([H])O[C@]([H])(CN)[C@@]([H])(O)[C@]([H])(O)[C@@]1([H])N

>  <SYNONYMS>  (19) 
nan

>  <ECFP_FP>  (19) 
<rdkit.DataStructs.cDataStructs.ExplicitBitVect object at 0xa26ccff30>

>  <pki_G>  (19) 
5.719137

>  <pki_D>  (19) 
5.862512

>  <pki_B>  (19) 
5.481317

>  <pki_A>  (19) 
5.022814

>  <SelB>  (19) 
0.23782

>  <SelA>  (19) 
0.696323

>  <SelD>  (19) 
-0.143375

>  <AvgABSel>  (19) 
0.467072

>  <MACCS_FP>  (19) 
[0. 0. 0. 0. 0. 0. 0. 0. 0. 0. 0. 0. 0. 0. 0. 0. 0. 0. 0. 0. 0. 0. 0. 0.
 0. 0. 0. 0. 0. 0. 0. 0. 0. 0. 0. 0. 0. 0. 0. 0. 0. 0. 0. 0. 0. 0. 0. 0.
 0. 0. 0. 0. 0. 1. 1. 0. 0. 1. 0. 0. 0. 0. 0. 0. 0. 0. 0. 0. 0. 0. 0. 0.
 1. 0. 0. 0. 0. 0. 0. 0. 1. 0. 1. 0. 1. 0. 0. 0. 0. 1. 1. 1. 0. 0. 0. 1.
 0. 1. 1. 0. 1. 0. 0. 0. 1. 0. 0. 0. 0. 1. 0. 1. 0. 0. 0. 0. 0. 0. 0. 0.
 1. 0. 0. 1. 0. 0. 1. 1. 0. 0. 0. 1. 1. 1. 0. 0. 0. 1. 1. 1. 1. 0. 1. 1.
 0. 1. 1. 0. 0. 0. 1. 1. 1. 1. 0. 1. 1. 1. 1. 1. 0. 1. 0. 1. 1. 1. 0.]

>  <MACCS_pki_G>  (19) 
6.198538

>  <MACCS_pki_D>  (19) 
5.858533

>  <MACCS_pki_B>  (19) 
6.113452

>  <MACCS_pki_A>  (19) 
6.041834

>  <MACCS_SelB>  (19) 
0.085086

>  <MACCS_SelA>  (19) 
0.156704

>  <MACCS_SelD>  (19) 
0.340005

>  <MACCSAvgABSel>  (19) 
0.120895

>  <Pharm2D_FP>  (19) 
[0. 0. 0. ... 0. 0. 0.]

>  <Pharm2D_pki_G>  (19) 
6.586306

>  <Pharm2D_pki_D>  (19) 
5.906264

>  <Pharm2D_pki_B>  (19) 
5.720499

>  <Pharm2D_pki_A>  (19) 
5.128721

>  <Pharm2D_SelB>  (19) 
0.865807

>  <Pharm2D_SelA>  (19) 
1.457586

>  <Pharm2D_SelD>  (19) 
0.680043

>  <Pharm2DAvgABSel>  (19) 
1.161697

>  <QED>  (19) 
0.167134

$$$$
DB01792
     RDKit          2D

 43 47  0  0  1  0  0  0  0  0999 V2000
   -0.3104   -8.0179    0.0000 C   0  0  0  0  0  0  0  0  0  0  0  0
   -0.2242   -7.1974    0.0000 C   0  0  0  0  0  0  0  0  0  0  0  0
   -0.5683   -1.4940    0.0000 C   0  0  0  0  0  0  0  0  0  0  0  0
    0.2896   -4.0594    0.0000 C   0  0  0  0  0  0  0  0  0  0  0  0
    3.3523    1.1104    0.0000 C   0  0  0  0  0  0  0  0  0  0  0  0
    0.6538    1.5229    0.0000 C   0  0  0  0  0  0  0  0  0  0  0  0
    0.0992   -1.0091    0.0000 C   0  0  0  0  0  0  0  0  0  0  0  0
   -0.2624   -4.6725    0.0000 C   0  0  0  0  0  0  0  0  0  0  0  0
   -1.0641   -8.3534    0.0000 C   0  0  0  0  0  0  0  0  0  0  0  0
    1.9233    1.9354    0.0000 C   0  0  0  0  0  0  0  0  0  0  0  0
    1.3687   -0.5966    0.0000 C   0  0  0  0  0  0  0  0  0  0  0  0
   -1.4185   -5.3400    0.0000 C   0  0  0  0  0  0  0  0  0  0  0  0
    0.8838   -1.2640    0.0000 C   0  0  0  0  0  0  0  0  0  0  0  0
   -1.0829   -4.5863    0.0000 C   0  0  0  0  0  0  0  0  0  0  0  0
    2.6378    2.3479    0.0000 C   0  0  0  0  0  0  0  0  0  0  0  0
    1.9233    1.1104    0.0000 C   0  0  0  0  0  0  0  0  0  0  0  0
   -0.8054   -5.8920    0.0000 C   0  0  0  0  0  0  0  0  0  0  0  0
    0.8838    0.0709    0.0000 C   0  0  0  0  0  0  0  0  0  0  0  0
   -1.6453   -7.0480    0.0000 C   0  0  0  0  0  0  0  0  0  0  0  0
    2.6378    3.1729    0.0000 N   0  0  0  0  0  0  0  0  0  0  0  0
    3.3523    1.9354    0.0000 N   0  0  0  0  0  0  0  0  0  0  0  0
    2.6378    0.6979    0.0000 N   0  0  0  0  0  0  0  0  0  0  0  0
    1.1387    2.1904    0.0000 N   0  0  0  0  0  0  0  0  0  0  0  0
   -1.7315   -7.8685    0.0000 N   0  0  0  0  0  0  0  0  0  0  0  0
   -0.8916   -6.7125    0.0000 N   0  0  0  0  0  0  0  0  0  0  0  0
    1.1387    0.8555    0.0000 N   0  0  0  0  0  0  0  0  0  0  0  0
   -1.3220   -1.1584    0.0000 O   0  0  0  0  0  0  0  0  0  0  0  0
   -1.1503   -9.1739    0.0000 O   0  0  0  0  0  0  0  0  0  0  0  0
    2.1937   -0.5966    0.0000 O   0  0  0  0  0  0  0  0  0  0  0  0
   -2.2254   -5.5115    0.0000 O   0  0  0  0  0  0  0  0  0  0  0  0
   -2.3127   -6.5631    0.0000 O   0  0  0  0  0  0  0  0  0  0  0  0
   -0.3684   -3.5698    0.0000 O   0  0  0  0  0  0  0  0  0  0  0  0
   -1.7974   -2.7448    0.0000 O   0  0  0  0  0  0  0  0  0  0  0  0
   -0.6704   -2.4429    0.0000 O   0  0  0  0  0  0  0  0  0  0  0  0
   -0.0264   -2.1097    0.0000 O   0  0  0  0  0  0  0  0  0  0  0  0
    1.1998   -3.2137    0.0000 O   0  0  0  0  0  0  0  0  0  0  0  0
    0.0347   -3.2748    0.0000 O   0  0  0  0  0  0  0  0  0  0  0  0
    0.0992   -0.1841    0.0000 O   0  0  0  0  0  0  0  0  0  0  0  0
   -0.0909   -5.4795    0.0000 O   0  0  0  0  0  0  0  0  0  0  0  0
   -1.4954   -3.8718    0.0000 O   0  0  0  0  0  0  0  0  0  0  0  0
    1.1387   -2.0486    0.0000 O   0  0  0  0  0  0  0  0  0  0  0  0
   -1.0829   -3.1573    0.0000 P   0  0  0  0  0  0  0  0  0  0  0  0
    0.5867   -2.6617    0.0000 P   0  0  0  0  0  0  0  0  0  0  0  0
  2  1  2  0
  7  3  1  1
  8  4  1  1
  9  1  1  0
 13  7  1  0
 13 11  1  0
 14  8  1  0
 14 12  1  0
 15 10  2  0
 16 10  1  0
 17 12  1  0
 18 11  1  0
 20 15  1  0
 21  5  2  0
 21 15  1  0
 22  5  1  0
 22 16  2  0
 23  6  2  0
 23 10  1  0
 24  9  2  0
 24 19  1  0
 25  2  1  0
 17 25  1  1
 25 19  1  0
 26  6  1  0
 26 16  1  0
 18 26  1  1
 27  3  1  0
 28  9  1  0
 11 29  1  6
 12 30  1  6
 31 19  2  0
 37  4  1  0
 38  7  1  0
 38 18  1  0
 39  8  1  0
 39 17  1  0
 14 40  1  6
 13 41  1  6
 42 32  1  0
 42 33  1  0
 42 34  2  0
 42 40  1  0
 43 35  1  0
 43 36  2  0
 43 37  1  0
 43 41  1  0
M  END
>  <ALOGPS_LOGP>  (20) 
-1.82

>  <ALOGPS_LOGS>  (20) 
-2.07

>  <ALOGPS_SOLUBILITY>  (20) 
5.50e+00 g/l

>  <DATABASE_NAME>  (20) 
drugbank

>  <DRUGBANK_ID>  (20) 
DB01792

>  <DRUG_GROUPS>  (20) 
experimental

>  <EXACT_MASS>  (20) 
653.088386189

>  <FORMULA>  (20) 
C19H25N7O15P2

>  <GENERIC_NAME>  (20) 
Adenylyl-3'-5'-Phospho-Uridine-3'-Monophosphate

>  <ID>  (20) 


>  <INCHI_IDENTIFIER>  (20) 
InChI=1S/C19H25N7O15P2/c20-15-10-16(22-5-21-15)26(6-23-10)18-11(29)13(7(3-27)38-18)41-43(35,36)37-4-8-14(40-42(32,33)34)12(30)17(39-8)25-2-1-9(28)24-19(25)31/h1-2,5-8,11-14,17-18,27,29-30H,3-4H2,(H,35,36)(H2,20,21,22)(H,24,28,31)(H2,32,33,34)/t7-,8-,11-,12-,13-,14-,17-,18-/m1/s1

>  <INCHI_KEY>  (20) 
FZCSEXOMUJFOHQ-KPKSGTNCSA-N

>  <INTERNATIONAL_BRANDS>  (20) 
nan

>  <JCHEM_ACCEPTOR_COUNT>  (20) 
17

>  <JCHEM_ATOM_COUNT>  (20) 
nan

>  <JCHEM_AVERAGE_POLARIZABILITY>  (20) 
55.405292687443236

>  <JCHEM_BIOAVAILABILITY>  (20) 
0

>  <JCHEM_DONOR_COUNT>  (20) 
8

>  <JCHEM_FORMAL_CHARGE>  (20) 
0

>  <JCHEM_GHOSE_FILTER>  (20) 
0

>  <JCHEM_IUPAC>  (20) 
{[(2R,3S,4R,5R)-2-{[({[(2R,3S,4R,5R)-5-(6-amino-9H-purin-9-yl)-4-hydroxy-2-(hydroxymethyl)oxolan-3-yl]oxy}(hydroxy)phosphoryl)oxy]methyl}-4-hydroxy-5-(4-hydroxy-2-oxo-1,2-dihydropyrimidin-1-yl)oxolan-3-yl]oxy}phosphonic acid

>  <JCHEM_LOGP>  (20) 
-5.856777514174233

>  <JCHEM_MDDR_LIKE_RULE>  (20) 
1

>  <JCHEM_NUMBER_OF_RINGS>  (20) 
5

>  <JCHEM_PHYSIOLOGICAL_CHARGE>  (20) 
-3

>  <JCHEM_PKA>  (20) 
1.8774217747697644

>  <JCHEM_PKA_STRONGEST_ACIDIC>  (20) 
0.8262231461664955

>  <JCHEM_PKA_STRONGEST_BASIC>  (20) 
4.938146324323877

>  <JCHEM_POLAR_SURFACE_AREA>  (20) 
324.19000000000005

>  <JCHEM_REFRACTIVITY>  (20) 
134.04969999999997

>  <JCHEM_ROTATABLE_BOND_COUNT>  (20) 
10

>  <JCHEM_RULE_OF_FIVE>  (20) 
0

>  <JCHEM_TRADITIONAL_IUPAC>  (20) 
[(2R,3S,4R,5R)-2-[({[(2R,3S,4R,5R)-5-(6-aminopurin-9-yl)-4-hydroxy-2-(hydroxymethyl)oxolan-3-yl]oxy(hydroxy)phosphoryl}oxy)methyl]-4-hydroxy-5-(4-hydroxy-2-oxopyrimidin-1-yl)oxolan-3-yl]oxyphosphonic acid

>  <JCHEM_VEBER_RULE>  (20) 
0

>  <MOLECULAR_WEIGHT>  (20) 
653.3872

>  <PRODUCTS>  (20) 
nan

>  <SALTS>  (20) 
nan

>  <SECONDARY_ACCESSION_NUMBERS>  (20) 
EXPT00547

>  <SMILES>  (20) 
[H][C@]1(CO)O[C@@]([H])(N2C=NC3=C(N)N=CN=C23)[C@]([H])(O)[C@]1([H])OP(O)(=O)OC[C@@]1([H])O[C@@]([H])(N2C=CC(O)=NC2=O)[C@]([H])(O)[C@]1([H])OP(O)(O)=O

>  <SYNONYMS>  (20) 
nan

>  <ECFP_FP>  (20) 
<rdkit.DataStructs.cDataStructs.ExplicitBitVect object at 0xa266cb0d0>

>  <pki_G>  (20) 
5.708289

>  <pki_D>  (20) 
5.747108

>  <pki_B>  (20) 
5.2979

>  <pki_A>  (20) 
5.20359

>  <SelB>  (20) 
0.41039

>  <SelA>  (20) 
0.5047

>  <SelD>  (20) 
-0.038819

>  <AvgABSel>  (20) 
0.457545

>  <MACCS_FP>  (20) 
[0. 0. 0. 0. 0. 0. 0. 0. 0. 0. 0. 0. 0. 0. 0. 0. 0. 0. 0. 0. 0. 0. 0. 0.
 0. 0. 0. 0. 0. 1. 0. 0. 0. 0. 0. 0. 0. 1. 1. 0. 0. 0. 0. 1. 0. 0. 0. 0.
 1. 0. 0. 0. 0. 0. 0. 0. 0. 1. 0. 0. 0. 0. 1. 0. 0. 1. 0. 0. 0. 1. 0. 0.
 1. 0. 0. 1. 0. 1. 0. 1. 1. 0. 1. 1. 1. 1. 0. 0. 0. 1. 1. 1. 1. 0. 0. 1.
 1. 1. 1. 0. 0. 1. 1. 0. 0. 1. 1. 0. 0. 1. 1. 0. 1. 1. 0. 0. 0. 1. 0. 0.
 1. 1. 1. 0. 1. 1. 1. 1. 0. 0. 1. 1. 1. 1. 0. 1. 1. 1. 1. 1. 1. 0. 1. 1.
 1. 1. 1. 0. 1. 0. 1. 1. 1. 1. 1. 1. 1. 1. 1. 1. 0. 1. 1. 1. 1. 1. 0.]

>  <MACCS_pki_G>  (20) 
5.780407

>  <MACCS_pki_D>  (20) 
5.829371

>  <MACCS_pki_B>  (20) 
5.310246

>  <MACCS_pki_A>  (20) 
5.809905

>  <MACCS_SelB>  (20) 
0.47016

>  <MACCS_SelA>  (20) 
-0.029498

>  <MACCS_SelD>  (20) 
-0.048965

>  <MACCSAvgABSel>  (20) 
0.220331

>  <Pharm2D_FP>  (20) 
[0. 0. 0. ... 0. 0. 0.]

>  <Pharm2D_pki_G>  (20) 
6.709936

>  <Pharm2D_pki_D>  (20) 
6.092531

>  <Pharm2D_pki_B>  (20) 
5.695536

>  <Pharm2D_pki_A>  (20) 
5.668917

>  <Pharm2D_SelB>  (20) 
1.0144

>  <Pharm2D_SelA>  (20) 
1.041019

>  <Pharm2D_SelD>  (20) 
0.617405

>  <Pharm2DAvgABSel>  (20) 
1.027709

>  <QED>  (20) 
0.100181

$$$$
DB08503
     RDKit          2D

 22 24  0  0  0  0  0  0  0  0999 V2000
   -2.0204    0.0166    0.0000 C   0  0  0  0  0  0  0  0  0  0  0  0
   -2.6878   -0.4683    0.0000 C   0  0  0  0  0  0  0  0  0  0  0  0
   -2.6016   -1.2888    0.0000 C   0  0  0  0  0  0  0  0  0  0  0  0
   -3.2691   -1.7737    0.0000 C   0  0  0  0  0  0  0  0  0  0  0  0
   -1.8479   -1.6244    0.0000 C   0  0  0  0  0  0  0  0  0  0  0  0
   -1.1805   -1.1395    0.0000 C   0  0  0  0  0  0  0  0  0  0  0  0
   -1.2667   -0.3190    0.0000 C   0  0  0  0  0  0  0  0  0  0  0  0
   -0.5993    0.1660    0.0000 C   0  0  0  0  0  0  0  0  0  0  0  0
    0.1853   -0.0890    0.0000 C   0  0  0  0  0  0  0  0  0  0  0  0
   -0.5993    0.9910    0.0000 N   0  0  0  0  0  0  0  0  0  0  0  0
    0.1853    1.2459    0.0000 O   0  0  0  0  0  0  0  0  0  0  0  0
    0.6702    0.5785    0.0000 C   0  0  0  0  0  0  0  0  0  0  0  0
    1.0827    1.2929    0.0000 O   0  0  0  0  0  0  0  0  0  0  0  0
    1.9077    1.2929    0.0000 C   0  0  0  0  0  0  0  0  0  0  0  0
    2.3202    2.0074    0.0000 C   0  0  0  0  0  0  0  0  0  0  0  0
    1.9077    2.7219    0.0000 O   0  0  0  0  0  0  0  0  0  0  0  0
    2.3202    0.5785    0.0000 C   0  0  0  0  0  0  0  0  0  0  0  0
    3.1452    0.5785    0.0000 O   0  0  0  0  0  0  0  0  0  0  0  0
    1.9077   -0.1360    0.0000 C   0  0  0  0  0  0  0  0  0  0  0  0
    2.3202   -0.8505    0.0000 O   0  0  0  0  0  0  0  0  0  0  0  0
    1.0827   -0.1360    0.0000 C   0  0  0  0  0  0  0  0  0  0  0  0
    0.6702   -0.8505    0.0000 O   0  0  0  0  0  0  0  0  0  0  0  0
  1  7  2  0
  1  2  1  0
  2  3  2  0
  3  5  1  0
  3  4  1  0
  6  5  2  0
  7  6  1  0
  8  7  1  1
  9  8  1  0
 10  8  1  0
 11 10  1  0
 12 13  1  0
 12 11  1  0
 12  9  1  6
 14 15  1  6
 14 13  1  0
 16 15  1  0
 17 14  1  0
 17 18  1  1
 19 17  1  0
 19 21  1  0
 19 20  1  6
 21 12  1  0
 21 22  1  1
M  END
>  <ALOGPS_LOGP>  (21) 
-0.33

>  <ALOGPS_LOGS>  (21) 
-1.05

>  <ALOGPS_SOLUBILITY>  (21) 
2.79e+01 g/l

>  <DATABASE_NAME>  (21) 
drugbank

>  <DRUGBANK_ID>  (21) 
DB08503

>  <DRUG_GROUPS>  (21) 
experimental

>  <EXACT_MASS>  (21) 
311.136887409

>  <FORMULA>  (21) 
C15H21NO6

>  <GENERIC_NAME>  (21) 
(3S,5R,7R,8S,9S,10R)-7-(hydroxymethyl)-3-(4-methylphenyl)-1,6-dioxa-2-azaspiro[4.5]decane-8,9,10-triol

>  <ID>  (21) 
S13

>  <INCHI_IDENTIFIER>  (21) 
InChI=1S/C15H21NO6/c1-8-2-4-9(5-3-8)10-6-15(22-16-10)14(20)13(19)12(18)11(7-17)21-15/h2-5,10-14,16-20H,6-7H2,1H3/t10-,11+,12+,13-,14+,15+/m0/s1

>  <INCHI_KEY>  (21) 
HRCKGDOSPBFICB-MZHQWRCYSA-N

>  <INTERNATIONAL_BRANDS>  (21) 
nan

>  <JCHEM_ACCEPTOR_COUNT>  (21) 
7

>  <JCHEM_ATOM_COUNT>  (21) 
nan

>  <JCHEM_AVERAGE_POLARIZABILITY>  (21) 
31.40445911351749

>  <JCHEM_BIOAVAILABILITY>  (21) 
1

>  <JCHEM_DONOR_COUNT>  (21) 
5

>  <JCHEM_FORMAL_CHARGE>  (21) 
0

>  <JCHEM_GHOSE_FILTER>  (21) 
1

>  <JCHEM_IUPAC>  (21) 
(3S,5R,7R,8S,9S,10R)-7-(hydroxymethyl)-3-(4-methylphenyl)-1,6-dioxa-2-azaspiro[4.5]decane-8,9,10-triol

>  <JCHEM_LOGP>  (21) 
0.07792498366666595

>  <JCHEM_MDDR_LIKE_RULE>  (21) 
0

>  <JCHEM_NUMBER_OF_RINGS>  (21) 
3

>  <JCHEM_PHYSIOLOGICAL_CHARGE>  (21) 
0

>  <JCHEM_PKA>  (21) 
13.155473189547674

>  <JCHEM_PKA_STRONGEST_ACIDIC>  (21) 
12.074514151734444

>  <JCHEM_PKA_STRONGEST_BASIC>  (21) 
4.1655078602364615

>  <JCHEM_POLAR_SURFACE_AREA>  (21) 
111.41000000000001

>  <JCHEM_REFRACTIVITY>  (21) 
86.23500000000003

>  <JCHEM_ROTATABLE_BOND_COUNT>  (21) 
2

>  <JCHEM_RULE_OF_FIVE>  (21) 
1

>  <JCHEM_TRADITIONAL_IUPAC>  (21) 
(3S,5R,7R,8S,9S,10R)-7-(hydroxymethyl)-3-(4-methylphenyl)-1,6-dioxa-2-azaspiro[4.5]decane-8,9,10-triol

>  <JCHEM_VEBER_RULE>  (21) 
0

>  <MOLECULAR_WEIGHT>  (21) 
311.3303

>  <PRODUCTS>  (21) 
nan

>  <SALTS>  (21) 
nan

>  <SECONDARY_ACCESSION_NUMBERS>  (21) 
nan

>  <SMILES>  (21) 
[H][C@]1(C[C@]2(ON1)O[C@]([H])(CO)[C@@]([H])(O)[C@]([H])(O)[C@@]2([H])O)C1=CC=C(C)C=C1

>  <SYNONYMS>  (21) 
nan

>  <ECFP_FP>  (21) 
<rdkit.DataStructs.cDataStructs.ExplicitBitVect object at 0xa26b2d350>

>  <pki_G>  (21) 
5.701392

>  <pki_D>  (21) 
5.947796

>  <pki_B>  (21) 
5.423993

>  <pki_A>  (21) 
5.183125

>  <SelB>  (21) 
0.277399

>  <SelA>  (21) 
0.518267

>  <SelD>  (21) 
-0.246404

>  <AvgABSel>  (21) 
0.397833

>  <MACCS_FP>  (21) 
[0. 0. 0. 0. 0. 0. 0. 0. 0. 0. 0. 0. 0. 0. 0. 0. 0. 0. 0. 0. 0. 0. 0. 0.
 1. 0. 0. 0. 0. 0. 0. 0. 0. 0. 0. 0. 0. 0. 0. 0. 0. 0. 0. 0. 0. 0. 0. 0.
 0. 0. 0. 0. 0. 1. 1. 0. 0. 1. 0. 0. 0. 0. 1. 0. 0. 0. 0. 0. 0. 1. 0. 1.
 1. 0. 0. 0. 0. 0. 0. 0. 0. 0. 1. 1. 0. 0. 0. 0. 0. 1. 1. 1. 0. 0. 1. 1.
 1. 1. 1. 0. 0. 0. 1. 0. 1. 1. 0. 0. 0. 1. 0. 1. 1. 0. 0. 0. 0. 0. 0. 0.
 1. 1. 0. 1. 1. 0. 0. 1. 1. 0. 0. 1. 1. 0. 0. 0. 0. 1. 0. 1. 1. 0. 0. 1.
 0. 1. 1. 0. 0. 0. 1. 1. 1. 1. 0. 1. 1. 1. 1. 1. 1. 1. 1. 1. 1. 1. 0.]

>  <MACCS_pki_G>  (21) 
6.729376

>  <MACCS_pki_D>  (21) 
6.025458

>  <MACCS_pki_B>  (21) 
6.111369

>  <MACCS_pki_A>  (21) 
6.012834

>  <MACCS_SelB>  (21) 
0.618007

>  <MACCS_SelA>  (21) 
0.716542

>  <MACCS_SelD>  (21) 
0.703917

>  <MACCSAvgABSel>  (21) 
0.667274

>  <Pharm2D_FP>  (21) 
[0. 0. 0. ... 0. 0. 0.]

>  <Pharm2D_pki_G>  (21) 
5.819638

>  <Pharm2D_pki_D>  (21) 
5.576942

>  <Pharm2D_pki_B>  (21) 
5.377086

>  <Pharm2D_pki_A>  (21) 
5.438032

>  <Pharm2D_SelB>  (21) 
0.442553

>  <Pharm2D_SelA>  (21) 
0.381607

>  <Pharm2D_SelD>  (21) 
0.242696

>  <Pharm2DAvgABSel>  (21) 
0.41208

>  <QED>  (21) 
0.482674

$$$$
DB04263
     RDKit          2D

 34 36  0  0  1  0  0  0  0  0999 V2000
   -2.8579    0.8250    0.0000 C   0  0  0  0  0  0  0  0  0  0  0  0
    1.7111   -0.7752    0.0000 C   0  0  0  0  0  0  0  0  0  0  0  0
    1.4289   -1.6500    0.0000 C   0  0  0  0  0  0  0  0  0  0  0  0
    0.0000    3.3000    0.0000 C   0  0  0  0  0  0  0  0  0  0  0  0
    1.4289    0.8250    0.0000 C   0  0  0  0  0  0  0  0  0  0  0  0
   -3.5724    1.2375    0.0000 C   0  0  0  0  0  0  0  0  0  0  0  0
   -0.7145    3.7125    0.0000 C   0  0  0  0  0  0  0  0  0  0  0  0
    0.0000    2.4750    0.0000 C   0  0  0  0  0  0  0  0  0  0  0  0
   -3.5724    3.7125    0.0000 C   0  0  0  0  0  0  0  0  0  0  0  0
   -4.2868    3.3000    0.0000 C   0  0  0  0  0  0  0  0  0  0  0  0
   -4.2868    2.4750    0.0000 C   0  0  0  0  0  0  0  0  0  0  0  0
   -1.4289    2.4750    0.0000 C   0  0  0  0  0  0  0  0  0  0  0  0
   -0.0000   -0.0000    0.0000 C   0  0  0  0  0  0  0  0  0  0  0  0
   -3.5724    2.0625    0.0000 C   0  0  0  0  0  0  0  0  0  0  0  0
   -1.4289    3.3000    0.0000 C   0  0  0  0  0  0  0  0  0  0  0  0
   -0.7145    2.0625    0.0000 C   0  0  0  0  0  0  0  0  0  0  0  0
    0.7145   -0.4125    0.0000 C   0  0  0  0  0  0  0  0  0  0  0  0
   -2.8579    3.3000    0.0000 C   0  0  0  0  0  0  0  0  0  0  0  0
   -0.0000    0.8250    0.0000 C   0  0  0  0  0  0  0  0  0  0  0  0
    1.4289   -0.0000    0.0000 C   0  0  0  0  0  0  0  0  0  0  0  0
   -0.7145    4.5375    0.0000 N   0  0  0  0  0  0  0  0  0  0  0  0
    0.7145    2.0625    0.0000 N   0  0  0  0  0  0  0  0  0  0  0  0
   -3.5724    4.5375    0.0000 N   0  0  0  0  0  0  0  0  0  0  0  0
    0.7145   -1.2375    0.0000 N   0  0  0  0  0  0  0  0  0  0  0  0
   -4.2868    0.8250    0.0000 O   0  0  0  0  0  0  0  0  0  0  0  0
   -5.0013    3.7125    0.0000 O   0  0  0  0  0  0  0  0  0  0  0  0
   -5.0013    2.0625    0.0000 O   0  0  0  0  0  0  0  0  0  0  0  0
   -2.1434    2.0625    0.0000 O   0  0  0  0  0  0  0  0  0  0  0  0
   -0.7145   -0.4125    0.0000 O   0  0  0  0  0  0  0  0  0  0  0  0
    2.2414    0.1433    0.0000 O   0  0  0  0  0  0  0  0  0  0  0  0
    0.7145    1.2375    0.0000 O   0  0  0  0  0  0  0  0  0  0  0  0
   -2.8579    2.4750    0.0000 O   0  0  0  0  0  0  0  0  0  0  0  0
   -2.1434    3.7125    0.0000 O   0  0  0  0  0  0  0  0  0  0  0  0
   -0.7145    1.2375    0.0000 O   0  0  0  0  0  0  0  0  0  0  0  0
  6  1  1  1
  7  4  1  0
  8  4  1  0
 10  9  1  0
 11 10  1  0
 14  6  1  0
 14 11  1  0
 15  7  1  0
 15 12  1  0
 16  8  1  0
 16 12  1  0
 17 13  1  0
 18  9  1  0
 19 13  1  0
 20  2  1  1
 20  5  1  0
 20 17  1  0
  7 21  1  1
  8 22  1  1
  9 23  1  1
 24  3  1  0
 17 24  1  6
  6 25  1  0
 10 26  1  6
 11 27  1  1
 12 28  1  1
 13 29  1  1
 20 30  1  0
 31  5  1  0
 31 19  1  0
 14 32  1  6
 32 18  1  0
 15 33  1  6
 18 33  1  1
 16 34  1  6
 19 34  1  1
M  END
>  <ALOGPS_LOGP>  (22) 
-2.41

>  <ALOGPS_LOGS>  (22) 
-0.93

>  <ALOGPS_SOLUBILITY>  (22) 
5.83e+01 g/l

>  <DATABASE_NAME>  (22) 
drugbank

>  <DRUGBANK_ID>  (22) 
DB04263

>  <DRUG_GROUPS>  (22) 
experimental

>  <EXACT_MASS>  (22) 
496.27444352

>  <FORMULA>  (22) 
C20H40N4O10

>  <GENERIC_NAME>  (22) 
Geneticin

>  <ID>  (22) 


>  <INCHI_IDENTIFIER>  (22) 
InChI=1S/C20H40N4O10/c1-6(25)14-11(27)10(26)9(23)18(32-14)33-15-7(21)4-8(22)16(12(15)28)34-19-13(29)17(24-3)20(2,30)5-31-19/h6-19,24-30H,4-5,21-23H2,1-3H3/t6-,7+,8-,9-,10-,11+,12+,13-,14-,15-,16+,17-,18-,19-,20+/m1/s1

>  <INCHI_KEY>  (22) 
BRZYSWJRSDMWLG-DJWUNRQOSA-N

>  <INTERNATIONAL_BRANDS>  (22) 
nan

>  <JCHEM_ACCEPTOR_COUNT>  (22) 
14

>  <JCHEM_ATOM_COUNT>  (22) 
nan

>  <JCHEM_AVERAGE_POLARIZABILITY>  (22) 
50.5512806116147

>  <JCHEM_BIOAVAILABILITY>  (22) 
0

>  <JCHEM_DONOR_COUNT>  (22) 
10

>  <JCHEM_FORMAL_CHARGE>  (22) 
0

>  <JCHEM_GHOSE_FILTER>  (22) 
0

>  <JCHEM_IUPAC>  (22) 
(2R,3S,4R,5R,6S)-5-amino-6-{[(1R,2S,3S,4R,6S)-4,6-diamino-3-{[(2R,3R,4R,5R)-3,5-dihydroxy-5-methyl-4-(methylamino)oxan-2-yl]oxy}-2-hydroxycyclohexyl]oxy}-2-[(1R)-1-hydroxyethyl]oxane-3,4-diol

>  <JCHEM_LOGP>  (22) 
-5.300846420333334

>  <JCHEM_MDDR_LIKE_RULE>  (22) 
1

>  <JCHEM_NUMBER_OF_RINGS>  (22) 
3

>  <JCHEM_PHYSIOLOGICAL_CHARGE>  (22) 
4

>  <JCHEM_PKA>  (22) 
12.915861636790826

>  <JCHEM_PKA_STRONGEST_ACIDIC>  (22) 
12.420779456066622

>  <JCHEM_PKA_STRONGEST_BASIC>  (22) 
9.790481633074313

>  <JCHEM_POLAR_SURFACE_AREA>  (22) 
248.38999999999993

>  <JCHEM_REFRACTIVITY>  (22) 
114.00359999999998

>  <JCHEM_ROTATABLE_BOND_COUNT>  (22) 
6

>  <JCHEM_RULE_OF_FIVE>  (22) 
0

>  <JCHEM_TRADITIONAL_IUPAC>  (22) 
(2R,3S,4R,5R,6S)-5-amino-6-{[(1R,2S,3S,4R,6S)-4,6-diamino-3-{[(2R,3R,4R,5R)-3,5-dihydroxy-5-methyl-4-(methylamino)oxan-2-yl]oxy}-2-hydroxycyclohexyl]oxy}-2-[(1R)-1-hydroxyethyl]oxane-3,4-diol

>  <JCHEM_VEBER_RULE>  (22) 
0

>  <MOLECULAR_WEIGHT>  (22) 
496.5524

>  <PRODUCTS>  (22) 
nan

>  <SALTS>  (22) 
nan

>  <SECONDARY_ACCESSION_NUMBERS>  (22) 
EXPT01586

>  <SMILES>  (22) 
[H][C@](C)(O)[C@@]1([H])O[C@]([H])(O[C@]2([H])[C@@]([H])(N)C[C@@]([H])(N)[C@]([H])(O[C@@]3([H])OC[C@](C)(O)[C@]([H])(NC)[C@@]3([H])O)[C@@]2([H])O)[C@]([H])(N)[C@@]([H])(O)[C@]1([H])O

>  <SYNONYMS>  (22) 
nan

>  <ECFP_FP>  (22) 
<rdkit.DataStructs.cDataStructs.ExplicitBitVect object at 0xa2695ce40>

>  <pki_G>  (22) 
5.694277

>  <pki_D>  (22) 
6.025086

>  <pki_B>  (22) 
5.478662

>  <pki_A>  (22) 
5.448563

>  <SelB>  (22) 
0.215615

>  <SelA>  (22) 
0.245714

>  <SelD>  (22) 
-0.330809

>  <AvgABSel>  (22) 
0.230664

>  <MACCS_FP>  (22) 
[0. 0. 0. 0. 0. 0. 0. 0. 0. 0. 0. 0. 0. 0. 0. 0. 0. 0. 0. 0. 0. 0. 0. 0.
 0. 0. 0. 0. 0. 0. 0. 0. 0. 0. 0. 0. 0. 0. 0. 0. 0. 0. 0. 0. 0. 0. 0. 0.
 0. 0. 0. 0. 0. 1. 1. 0. 0. 1. 0. 0. 0. 0. 0. 0. 0. 0. 1. 0. 0. 0. 0. 0.
 1. 0. 0. 0. 0. 0. 0. 0. 1. 0. 0. 0. 1. 0. 0. 0. 0. 1. 1. 1. 0. 1. 0. 1.
 0. 1. 1. 0. 0. 0. 0. 0. 1. 0. 0. 0. 1. 1. 0. 1. 1. 0. 0. 1. 0. 0. 0. 0.
 1. 0. 0. 1. 0. 0. 1. 1. 0. 0. 0. 1. 1. 1. 0. 0. 0. 1. 0. 1. 1. 1. 1. 1.
 0. 1. 1. 0. 0. 1. 1. 1. 1. 1. 0. 0. 1. 1. 1. 1. 1. 1. 0. 1. 1. 1. 0.]

>  <MACCS_pki_G>  (22) 
6.182877

>  <MACCS_pki_D>  (22) 
5.87889

>  <MACCS_pki_B>  (22) 
6.140952

>  <MACCS_pki_A>  (22) 
6.01025

>  <MACCS_SelB>  (22) 
0.041925

>  <MACCS_SelA>  (22) 
0.172627

>  <MACCS_SelD>  (22) 
0.303987

>  <MACCSAvgABSel>  (22) 
0.107276

>  <Pharm2D_FP>  (22) 
[0. 0. 0. ... 0. 0. 0.]

>  <Pharm2D_pki_G>  (22) 
6.586306

>  <Pharm2D_pki_D>  (22) 
5.874431

>  <Pharm2D_pki_B>  (22) 
5.685172

>  <Pharm2D_pki_A>  (22) 
5.128721

>  <Pharm2D_SelB>  (22) 
0.901135

>  <Pharm2D_SelA>  (22) 
1.457586

>  <Pharm2D_SelD>  (22) 
0.711876

>  <Pharm2DAvgABSel>  (22) 
1.17936

>  <QED>  (22) 
0.164624

$$$$
DB08500
     RDKit          2D

 25 28  0  0  0  0  0  0  0  0999 V2000
   -1.8382    0.0370    0.0000 C   0  0  0  0  0  0  0  0  0  0  0  0
   -2.5057   -0.4479    0.0000 C   0  0  0  0  0  0  0  0  0  0  0  0
   -3.2593   -0.1124    0.0000 C   0  0  0  0  0  0  0  0  0  0  0  0
   -3.9268   -0.5973    0.0000 C   0  0  0  0  0  0  0  0  0  0  0  0
   -3.8405   -1.4178    0.0000 C   0  0  0  0  0  0  0  0  0  0  0  0
   -3.0869   -1.7533    0.0000 C   0  0  0  0  0  0  0  0  0  0  0  0
   -2.4194   -1.2684    0.0000 C   0  0  0  0  0  0  0  0  0  0  0  0
   -1.6658   -1.6040    0.0000 C   0  0  0  0  0  0  0  0  0  0  0  0
   -0.9983   -1.1191    0.0000 C   0  0  0  0  0  0  0  0  0  0  0  0
   -1.0846   -0.2986    0.0000 C   0  0  0  0  0  0  0  0  0  0  0  0
   -0.4171    0.1863    0.0000 C   0  0  0  0  0  0  0  0  0  0  0  0
    0.3675   -0.0686    0.0000 C   0  0  0  0  0  0  0  0  0  0  0  0
   -0.4171    1.0113    0.0000 N   0  0  0  0  0  0  0  0  0  0  0  0
    0.3675    1.2663    0.0000 O   0  0  0  0  0  0  0  0  0  0  0  0
    0.8524    0.5988    0.0000 C   0  0  0  0  0  0  0  0  0  0  0  0
    1.2649    1.3133    0.0000 O   0  0  0  0  0  0  0  0  0  0  0  0
    2.0899    1.3133    0.0000 C   0  0  0  0  0  0  0  0  0  0  0  0
    2.5024    2.0278    0.0000 C   0  0  0  0  0  0  0  0  0  0  0  0
    2.0899    2.7423    0.0000 O   0  0  0  0  0  0  0  0  0  0  0  0
    2.5024    0.5988    0.0000 C   0  0  0  0  0  0  0  0  0  0  0  0
    3.3274    0.5988    0.0000 O   0  0  0  0  0  0  0  0  0  0  0  0
    2.0899   -0.1156    0.0000 C   0  0  0  0  0  0  0  0  0  0  0  0
    2.5024   -0.8301    0.0000 O   0  0  0  0  0  0  0  0  0  0  0  0
    1.2649   -0.1156    0.0000 C   0  0  0  0  0  0  0  0  0  0  0  0
    0.8524   -0.8301    0.0000 O   0  0  0  0  0  0  0  0  0  0  0  0
  1 10  2  0
  1  2  1  0
  2  7  2  0
  3  2  1  0
  3  4  2  0
  4  5  1  0
  5  6  2  0
  7  8  1  0
  7  6  1  0
  9  8  2  0
 10  9  1  0
 11 10  1  1
 12 11  1  0
 13 11  1  0
 14 13  1  0
 15 16  1  0
 15 14  1  0
 15 12  1  6
 17 18  1  6
 17 16  1  0
 19 18  1  0
 20 17  1  0
 20 21  1  1
 22 20  1  0
 22 24  1  0
 22 23  1  6
 24 15  1  0
 24 25  1  1
M  END
>  <ALOGPS_LOGP>  (23) 
0.14

>  <ALOGPS_LOGS>  (23) 
-1.89

>  <ALOGPS_SOLUBILITY>  (23) 
4.45e+00 g/l

>  <DATABASE_NAME>  (23) 
drugbank

>  <DRUGBANK_ID>  (23) 
DB08500

>  <DRUG_GROUPS>  (23) 
experimental

>  <EXACT_MASS>  (23) 
347.136887409

>  <FORMULA>  (23) 
C18H21NO6

>  <GENERIC_NAME>  (23) 
(3S,5R,7R,8S,9S,10R)-7-(hydroxymethyl)-3-(2-naphthyl)-1,6-dioxa-2-azaspiro[4.5]decane-8,9,10-triol

>  <ID>  (23) 
S06

>  <INCHI_IDENTIFIER>  (23) 
InChI=1S/C18H21NO6/c20-9-14-15(21)16(22)17(23)18(24-14)8-13(19-25-18)12-6-5-10-3-1-2-4-11(10)7-12/h1-7,13-17,19-23H,8-9H2/t13-,14+,15+,16-,17+,18+/m0/s1

>  <INCHI_KEY>  (23) 
ZCJBDRSKHARECB-PYTCMNEWSA-N

>  <INTERNATIONAL_BRANDS>  (23) 
nan

>  <JCHEM_ACCEPTOR_COUNT>  (23) 
7

>  <JCHEM_ATOM_COUNT>  (23) 
nan

>  <JCHEM_AVERAGE_POLARIZABILITY>  (23) 
34.960092338195906

>  <JCHEM_BIOAVAILABILITY>  (23) 
1

>  <JCHEM_DONOR_COUNT>  (23) 
5

>  <JCHEM_FORMAL_CHARGE>  (23) 
0

>  <JCHEM_GHOSE_FILTER>  (23) 
1

>  <JCHEM_IUPAC>  (23) 
(3S,5R,7R,8S,9S,10R)-7-(hydroxymethyl)-3-(naphthalen-2-yl)-1,6-dioxa-2-azaspiro[4.5]decane-8,9,10-triol

>  <JCHEM_LOGP>  (23) 
0.5539803510000002

>  <JCHEM_MDDR_LIKE_RULE>  (23) 
0

>  <JCHEM_NUMBER_OF_RINGS>  (23) 
4

>  <JCHEM_PHYSIOLOGICAL_CHARGE>  (23) 
0

>  <JCHEM_PKA>  (23) 
13.155473188959142

>  <JCHEM_PKA_STRONGEST_ACIDIC>  (23) 
12.074514149596824

>  <JCHEM_PKA_STRONGEST_BASIC>  (23) 
4.175848383776751

>  <JCHEM_POLAR_SURFACE_AREA>  (23) 
111.41000000000001

>  <JCHEM_REFRACTIVITY>  (23) 
97.64400000000002

>  <JCHEM_ROTATABLE_BOND_COUNT>  (23) 
2

>  <JCHEM_RULE_OF_FIVE>  (23) 
1

>  <JCHEM_TRADITIONAL_IUPAC>  (23) 
(3S,5R,7R,8S,9S,10R)-7-(hydroxymethyl)-3-(naphthalen-2-yl)-1,6-dioxa-2-azaspiro[4.5]decane-8,9,10-triol

>  <JCHEM_VEBER_RULE>  (23) 
0

>  <MOLECULAR_WEIGHT>  (23) 
347.3624

>  <PRODUCTS>  (23) 
nan

>  <SALTS>  (23) 
nan

>  <SECONDARY_ACCESSION_NUMBERS>  (23) 
nan

>  <SMILES>  (23) 
[H][C@]1(C[C@]2(ON1)O[C@]([H])(CO)[C@@]([H])(O)[C@]([H])(O)[C@@]2([H])O)C1=CC2=CC=CC=C2C=C1

>  <SYNONYMS>  (23) 
nan

>  <ECFP_FP>  (23) 
<rdkit.DataStructs.cDataStructs.ExplicitBitVect object at 0xa26b2d440>

>  <pki_G>  (23) 
5.661705

>  <pki_D>  (23) 
5.893312

>  <pki_B>  (23) 
5.419073

>  <pki_A>  (23) 
5.319451

>  <SelB>  (23) 
0.242632

>  <SelA>  (23) 
0.342254

>  <SelD>  (23) 
-0.231607

>  <AvgABSel>  (23) 
0.292443

>  <MACCS_FP>  (23) 
[0. 0. 0. 0. 0. 0. 0. 0. 0. 0. 0. 0. 0. 0. 0. 0. 0. 0. 0. 0. 0. 0. 0. 0.
 1. 0. 0. 0. 0. 0. 0. 0. 0. 0. 0. 0. 0. 0. 0. 0. 0. 0. 0. 0. 0. 0. 0. 0.
 0. 0. 0. 0. 0. 1. 1. 0. 0. 1. 0. 0. 0. 0. 1. 0. 0. 0. 0. 0. 0. 1. 0. 1.
 1. 0. 0. 0. 0. 0. 0. 0. 0. 0. 1. 1. 0. 0. 0. 0. 0. 1. 1. 1. 0. 0. 1. 1.
 1. 1. 1. 0. 0. 1. 1. 0. 1. 1. 0. 0. 0. 1. 0. 1. 1. 0. 0. 0. 0. 0. 0. 0.
 1. 1. 0. 1. 1. 1. 0. 1. 1. 0. 0. 1. 1. 0. 0. 0. 0. 1. 0. 1. 1. 0. 0. 1.
 0. 1. 1. 0. 0. 0. 1. 1. 1. 1. 0. 1. 1. 1. 1. 1. 0. 1. 1. 1. 1. 1. 0.]

>  <MACCS_pki_G>  (23) 
6.736709

>  <MACCS_pki_D>  (23) 
6.025458

>  <MACCS_pki_B>  (23) 
6.166146

>  <MACCS_pki_A>  (23) 
6.012834

>  <MACCS_SelB>  (23) 
0.570562

>  <MACCS_SelA>  (23) 
0.723875

>  <MACCS_SelD>  (23) 
0.711251

>  <MACCSAvgABSel>  (23) 
0.647219

>  <Pharm2D_FP>  (23) 
[0. 0. 0. ... 0. 0. 0.]

>  <Pharm2D_pki_G>  (23) 
5.819638

>  <Pharm2D_pki_D>  (23) 
5.75221

>  <Pharm2D_pki_B>  (23) 
5.402621

>  <Pharm2D_pki_A>  (23) 
5.69321

>  <Pharm2D_SelB>  (23) 
0.417017

>  <Pharm2D_SelA>  (23) 
0.126428

>  <Pharm2D_SelD>  (23) 
0.067428

>  <Pharm2DAvgABSel>  (23) 
0.271722

>  <QED>  (23) 
0.518913

$$$$
DB04865
     RDKit          2D

 39 43  0  0  1  0  0  0  0  0999 V2000
    1.2184   -4.3069    0.0000 C   0  0  0  0  0  0  0  0  0  0  0  0
    1.8985   -5.2548    0.0000 C   0  0  0  0  0  0  0  0  0  0  0  0
    1.6504   -2.6739    0.0000 C   0  0  0  0  0  0  0  0  0  0  0  0
    5.8117   -4.3385    0.0000 C   0  0  0  0  0  0  0  0  0  0  0  0
    3.3695   -3.9367    0.0000 C   0  0  0  0  0  0  0  0  0  0  0  0
    1.5094   -0.4307    0.0000 C   0  0  0  0  0  0  0  0  0  0  0  0
    3.8861    1.0846    0.0000 C   0  0  0  0  0  0  0  0  0  0  0  0
    2.8465   -4.5747    0.0000 C   0  0  0  0  0  0  0  0  0  0  0  0
    2.0536   -0.9204    0.0000 C   0  0  0  0  0  0  0  0  0  0  0  0
    4.1835   -4.0706    0.0000 C   0  0  0  0  0  0  0  0  0  0  0  0
    1.7748    0.3504    0.0000 C   0  0  0  0  0  0  0  0  0  0  0  0
    3.0635    1.0217    0.0000 C   0  0  0  0  0  0  0  0  0  0  0  0
    5.2156    0.7832    0.0000 C   0  0  0  0  0  0  0  0  0  0  0  0
    4.9722   -0.8488    0.0000 C   0  0  0  0  0  0  0  0  0  0  0  0
    2.3211   -1.0867    0.0000 C   0  0  0  0  0  0  0  0  0  0  0  0
    5.2296   -2.7946    0.0000 C   0  0  0  0  0  0  0  0  0  0  0  0
    7.0562   -0.3255    0.0000 C   0  0  0  0  0  0  0  0  0  0  0  0
    4.4481    0.4806    0.0000 C   0  0  0  0  0  0  0  0  0  0  0  0
    4.3264   -0.3353    0.0000 C   0  0  0  0  0  0  0  0  0  0  0  0
    5.8614    0.2698    0.0000 C   0  0  0  0  0  0  0  0  0  0  0  0
    5.7397   -0.5462    0.0000 C   0  0  0  0  0  0  0  0  0  0  0  0
    2.7663   -1.7813    0.0000 C   0  0  0  0  0  0  0  0  0  0  0  0
    6.0436   -2.9285    0.0000 C   0  0  0  0  0  0  0  0  0  0  0  0
    3.6125   -0.7489    0.0000 C   0  0  0  0  0  0  0  0  0  0  0  0
    3.5644   -1.5725    0.0000 C   0  0  0  0  0  0  0  0  0  0  0  0
    4.0685   -2.9096    0.0000 C   0  0  0  0  0  0  0  0  0  0  0  0
    2.0324   -4.4408    0.0000 C   0  0  0  0  0  0  0  0  0  0  0  0
    2.8441   -0.4487    0.0000 C   0  0  0  0  0  0  0  0  0  0  0  0
    4.7066   -3.4326    0.0000 C   0  0  0  0  0  0  0  0  0  0  0  0
    2.5998    0.3393    0.0000 N   0  0  0  0  0  0  0  0  0  0  0  0
    6.5666   -2.2905    0.0000 O   0  0  0  0  0  0  0  0  0  0  0  0
    3.2966   -3.2006    0.0000 O   0  0  0  0  0  0  0  0  0  0  0  0
    2.1663   -3.6267    0.0000 O   0  0  0  0  0  0  0  0  0  0  0  0
    5.3446   -3.9556    0.0000 O   0  0  0  0  0  0  0  0  0  0  0  0
    2.4660   -2.5497    0.0000 O   0  0  0  0  0  0  0  0  0  0  0  0
    6.3347   -3.7005    0.0000 O   0  0  0  0  0  0  0  0  0  0  0  0
    6.6751    0.4061    0.0000 O   0  0  0  0  0  0  0  0  0  0  0  0
    6.4781   -0.9141    0.0000 O   0  0  0  0  0  0  0  0  0  0  0  0
    4.2025   -2.0955    0.0000 O   0  0  0  0  0  0  0  0  0  0  0  0
  8  5  1  0
  9  6  1  0
 10  5  1  0
 11  6  1  0
 12  7  1  0
 18  7  1  0
 18 13  2  0
 19 14  2  0
 19 18  1  0
 20 13  1  0
 21 14  1  0
 21 20  2  0
 22 15  2  0
 23 16  1  0
 24 19  1  6
 25 22  1  0
 25 24  1  0
 27  1  1  0
 27  2  1  0
 27  8  1  0
 28  9  1  1
 28 15  1  0
 28 24  1  0
 29 10  1  0
 29 16  1  0
 29 26  1  0
 30 11  1  0
 30 12  1  0
 28 30  1  0
 31 23  2  0
 32 26  2  0
 33 27  1  0
 29 34  1  1
 35  3  1  0
 35 22  1  0
 36  4  1  0
 36 23  1  0
 37 17  1  0
 37 20  1  0
 38 17  1  0
 38 21  1  0
 25 39  1  6
 39 26  1  0
M  END
>  <ALOGPS_LOGP>  (24) 
2.09

>  <ALOGPS_LOGS>  (24) 
-3.70

>  <ALOGPS_SOLUBILITY>  (24) 
1.08e-01 g/l

>  <DATABASE_NAME>  (24) 
drugbank

>  <DRUGBANK_ID>  (24) 
DB04865

>  <DRUG_GROUPS>  (24) 
approved; investigational

>  <EXACT_MASS>  (24) 
545.262481851

>  <FORMULA>  (24) 
C29H39NO9

>  <GENERIC_NAME>  (24) 
Omacetaxine mepesuccinate

>  <ID>  (24) 


>  <INCHI_IDENTIFIER>  (24) 
InChI=1S/C29H39NO9/c1-27(2,33)8-5-10-29(34,16-23(31)36-4)26(32)39-25-22(35-3)15-28-9-6-11-30(28)12-7-18-13-20-21(38-17-37-20)14-19(18)24(25)28/h13-15,24-25,33-34H,5-12,16-17H2,1-4H3/t24-,25-,28+,29-/m1/s1

>  <INCHI_KEY>  (24) 
HYFHYPWGAURHIV-JFIAXGOJSA-N

>  <INTERNATIONAL_BRANDS>  (24) 
Ceflatonin

>  <JCHEM_ACCEPTOR_COUNT>  (24) 
8

>  <JCHEM_ATOM_COUNT>  (24) 
nan

>  <JCHEM_AVERAGE_POLARIZABILITY>  (24) 
57.62139891867372

>  <JCHEM_BIOAVAILABILITY>  (24) 
0

>  <JCHEM_DONOR_COUNT>  (24) 
2

>  <JCHEM_FORMAL_CHARGE>  (24) 
0

>  <JCHEM_GHOSE_FILTER>  (24) 
0

>  <JCHEM_IUPAC>  (24) 
(2S,3S,6R)-4-methoxy-16,18-dioxa-10-azapentacyclo[11.7.0.0,.0,.0,]icosa-1(20),4,13,15(19)-tetraen-3-yl 1-methyl (3R)-3-hydroxy-3-(4-hydroxy-4-methylpentyl)butanedioate

>  <JCHEM_LOGP>  (24) 
1.8846706793333348

>  <JCHEM_MDDR_LIKE_RULE>  (24) 
1

>  <JCHEM_NUMBER_OF_RINGS>  (24) 
5

>  <JCHEM_PHYSIOLOGICAL_CHARGE>  (24) 
1

>  <JCHEM_PKA>  (24) 
18.53070408521904

>  <JCHEM_PKA_STRONGEST_ACIDIC>  (24) 
12.090441034596882

>  <JCHEM_PKA_STRONGEST_BASIC>  (24) 
9.417794628939516

>  <JCHEM_POLAR_SURFACE_AREA>  (24) 
123.99000000000002

>  <JCHEM_REFRACTIVITY>  (24) 
142.0749

>  <JCHEM_ROTATABLE_BOND_COUNT>  (24) 
11

>  <JCHEM_RULE_OF_FIVE>  (24) 
0

>  <JCHEM_TRADITIONAL_IUPAC>  (24) 
omacetaxine mepesuccinate

>  <JCHEM_VEBER_RULE>  (24) 
0

>  <MOLECULAR_WEIGHT>  (24) 
545.6213

>  <PRODUCTS>  (24) 
Synribo

>  <SALTS>  (24) 
Omacetaxine mepesuccinate hydrochloride

>  <SECONDARY_ACCESSION_NUMBERS>  (24) 
nan

>  <SMILES>  (24) 
[H][C@@]1(OC(=O)[C@@](O)(CCCC(C)(C)O)CC(=O)OC)C(OC)=C[C@]23CCCN2CCC2=CC4=C(OCO4)C=C2[C@]13[H]

>  <SYNONYMS>  (24) 
()-homoharringtonine; (2'R,3S,4S,5R)-()-homoharringtonine; HHT; Homoharringtonin; Homoharringtonine; mepesuccinato de omacetaxina; Omacetaxine mepesuccinate

>  <ECFP_FP>  (24) 
<rdkit.DataStructs.cDataStructs.ExplicitBitVect object at 0xa269b9ee0>

>  <pki_G>  (24) 
5.620426

>  <pki_D>  (24) 
5.791066

>  <pki_B>  (24) 
5.486086

>  <pki_A>  (24) 
5.600057

>  <SelB>  (24) 
0.13434

>  <SelA>  (24) 
0.020369

>  <SelD>  (24) 
-0.17064

>  <AvgABSel>  (24) 
0.077354

>  <MACCS_FP>  (24) 
[0. 0. 0. 0. 0. 0. 0. 0. 0. 0. 0. 0. 0. 0. 0. 0. 0. 0. 0. 1. 0. 0. 0. 0.
 0. 0. 0. 0. 1. 0. 0. 0. 0. 0. 0. 0. 0. 0. 0. 0. 0. 0. 0. 0. 0. 0. 0. 0.
 0. 0. 0. 0. 0. 0. 0. 0. 0. 1. 0. 0. 0. 0. 0. 0. 0. 0. 1. 0. 0. 0. 0. 0.
 1. 0. 1. 0. 1. 0. 0. 0. 0. 0. 0. 1. 0. 1. 1. 0. 0. 1. 1. 1. 0. 1. 0. 0.
 1. 1. 0. 1. 1. 1. 0. 0. 1. 1. 0. 0. 1. 1. 0. 1. 1. 1. 0. 1. 1. 0. 1. 0.
 1. 1. 1. 1. 0. 0. 1. 1. 1. 1. 0. 1. 1. 0. 0. 0. 1. 1. 1. 1. 1. 1. 0. 1.
 1. 0. 1. 1. 1. 1. 1. 0. 1. 1. 1. 1. 1. 1. 1. 1. 1. 1. 1. 1. 1. 1. 0.]

>  <MACCS_pki_G>  (24) 
6.027253

>  <MACCS_pki_D>  (24) 
5.65562

>  <MACCS_pki_B>  (24) 
5.594301

>  <MACCS_pki_A>  (24) 
5.782393

>  <MACCS_SelB>  (24) 
0.432952

>  <MACCS_SelA>  (24) 
0.24486

>  <MACCS_SelD>  (24) 
0.371633

>  <MACCSAvgABSel>  (24) 
0.338906

>  <Pharm2D_FP>  (24) 
[0. 0. 0. ... 0. 0. 0.]

>  <Pharm2D_pki_G>  (24) 
6.535978

>  <Pharm2D_pki_D>  (24) 
5.629332

>  <Pharm2D_pki_B>  (24) 
5.458236

>  <Pharm2D_pki_A>  (24) 
5.636902

>  <Pharm2D_SelB>  (24) 
1.077743

>  <Pharm2D_SelA>  (24) 
0.899077

>  <Pharm2D_SelD>  (24) 
0.906646

>  <Pharm2DAvgABSel>  (24) 
0.98841

>  <QED>  (24) 
0.447625

$$$$
DB01910
     RDKit          2D

 27 29  0  0  0  0  0  0  0  0999 V2000
    2.2961    7.3083    0.0000 C   0  0  0  0  0  0  0  0  0  0  0  0
    1.5817    7.7208    0.0000 C   0  0  0  0  0  0  0  0  0  0  0  0
    3.7251    7.3083    0.0000 C   0  0  0  0  0  0  0  0  0  0  0  0
    7.8964    9.4887    0.0000 C   0  0  0  0  0  0  0  0  0  0  0  0
    5.2558   10.1810    0.0000 C   0  0  0  0  0  0  0  0  0  0  0  0
    3.0106    7.7208    0.0000 C   0  0  0  0  0  0  0  0  0  0  0  0
    0.8672    7.3083    0.0000 C   0  0  0  0  0  0  0  0  0  0  0  0
    4.4395    7.7208    0.0000 C   0  0  0  0  0  0  0  0  0  0  0  0
    6.5615   10.4585    0.0000 C   0  0  0  0  0  0  0  0  0  0  0  0
    5.1932    7.3853    0.0000 C   0  0  0  0  0  0  0  0  0  0  0  0
    5.7453    7.9984    0.0000 C   0  0  0  0  0  0  0  0  0  0  0  0
    7.3152   10.7941    0.0000 C   0  0  0  0  0  0  0  0  0  0  0  0
    6.4753    9.6380    0.0000 C   0  0  0  0  0  0  0  0  0  0  0  0
    5.3328    8.7128    0.0000 C   0  0  0  0  0  0  0  0  0  0  0  0
    0.1527    7.7208    0.0000 C   0  0  0  0  0  0  0  0  0  0  0  0
    3.0106    8.5458    0.0000 N   0  0  0  0  0  0  0  0  0  0  0  0
    0.8672    6.4833    0.0000 N   0  0  0  0  0  0  0  0  0  0  0  0
    7.4014   11.6146    0.0000 N   0  0  0  0  0  0  0  0  0  0  0  0
    7.9826   10.3092    0.0000 N   0  0  0  0  0  0  0  0  0  0  0  0
    7.1427    9.1531    0.0000 N   0  0  0  0  0  0  0  0  0  0  0  0
    5.8078   10.7941    0.0000 N   0  0  0  0  0  0  0  0  0  0  0  0
    5.6683    9.4665    0.0000 N   0  0  0  0  0  0  0  0  0  0  0  0
    5.3647    6.5783    0.0000 O   0  0  0  0  0  0  0  0  0  0  0  0
    6.5657    7.9121    0.0000 O   0  0  0  0  0  0  0  0  0  0  0  0
   -0.5618    7.3083    0.0000 O   0  0  0  0  0  0  0  0  0  0  0  0
    0.1527    8.5458    0.0000 O   0  0  0  0  0  0  0  0  0  0  0  0
    4.5258    8.5413    0.0000 O   0  0  0  0  0  0  0  0  0  0  0  0
  2  1  1  0
  6  1  1  0
  6  3  1  0
  7  2  1  0
  8  3  1  1
 10  8  1  0
 11 10  1  0
 12  9  2  0
 13  9  1  0
 14 11  1  0
 15  7  1  0
  6 16  1  6
  7 17  1  6
 18 12  1  0
 19  4  2  0
 19 12  1  0
 20  4  1  0
 20 13  2  0
 21  5  2  0
 21  9  1  0
 22  5  1  0
 22 13  1  0
 14 22  1  1
 10 23  1  6
 11 24  1  6
 25 15  2  0
 26 15  1  0
 27  8  1  0
 27 14  1  0
M  END
>  <ALOGPS_LOGP>  (25) 
-3.05

>  <ALOGPS_LOGS>  (25) 
-1.92

>  <ALOGPS_SOLUBILITY>  (25) 
4.63e+00 g/l

>  <DATABASE_NAME>  (25) 
drugbank

>  <DRUGBANK_ID>  (25) 
DB01910

>  <DRUG_GROUPS>  (25) 
experimental

>  <EXACT_MASS>  (25) 
381.176066881

>  <FORMULA>  (25) 
C15H23N7O5

>  <GENERIC_NAME>  (25) 
Sinefungin

>  <ID>  (25) 


>  <INCHI_IDENTIFIER>  (25) 
InChI=1S/C15H23N7O5/c16-6(1-2-7(17)15(25)26)3-8-10(23)11(24)14(27-8)22-5-21-9-12(18)19-4-20-13(9)22/h4-8,10-11,14,23-24H,1-3,16-17H2,(H,25,26)(H2,18,19,20)/t6-,7-,8+,10+,11+,14+/m0/s1

>  <INCHI_KEY>  (25) 
LMXOHSDXUQEUSF-YECHIGJVSA-N

>  <INTERNATIONAL_BRANDS>  (25) 
nan

>  <JCHEM_ACCEPTOR_COUNT>  (25) 
11

>  <JCHEM_ATOM_COUNT>  (25) 
nan

>  <JCHEM_AVERAGE_POLARIZABILITY>  (25) 
37.68650181215635

>  <JCHEM_BIOAVAILABILITY>  (25) 
0

>  <JCHEM_DONOR_COUNT>  (25) 
6

>  <JCHEM_FORMAL_CHARGE>  (25) 
0

>  <JCHEM_GHOSE_FILTER>  (25) 
0

>  <JCHEM_IUPAC>  (25) 
(2S,5S)-2,5-diamino-6-[(2R,3S,4R,5R)-5-(6-amino-9H-purin-9-yl)-3,4-dihydroxyoxolan-2-yl]hexanoic acid

>  <JCHEM_LOGP>  (25) 
-5.138679707504106

>  <JCHEM_MDDR_LIKE_RULE>  (25) 
1

>  <JCHEM_NUMBER_OF_RINGS>  (25) 
3

>  <JCHEM_PHYSIOLOGICAL_CHARGE>  (25) 
1

>  <JCHEM_PKA>  (25) 
12.48129078946981

>  <JCHEM_PKA_STRONGEST_ACIDIC>  (25) 
1.9480808652263852

>  <JCHEM_PKA_STRONGEST_BASIC>  (25) 
10.180208209426675

>  <JCHEM_POLAR_SURFACE_AREA>  (25) 
208.64999999999995

>  <JCHEM_REFRACTIVITY>  (25) 
92.67839999999998

>  <JCHEM_ROTATABLE_BOND_COUNT>  (25) 
7

>  <JCHEM_RULE_OF_FIVE>  (25) 
0

>  <JCHEM_TRADITIONAL_IUPAC>  (25) 
sinefungin

>  <JCHEM_VEBER_RULE>  (25) 
0

>  <MOLECULAR_WEIGHT>  (25) 
381.387

>  <PRODUCTS>  (25) 
nan

>  <SALTS>  (25) 
nan

>  <SECONDARY_ACCESSION_NUMBERS>  (25) 
EXPT02890

>  <SMILES>  (25) 
[H][C@](N)(CC[C@]([H])(N)C(O)=O)C[C@@]1([H])O[C@@]([H])(N2C=NC3=C(N)N=CN=C23)[C@]([H])(O)[C@]1([H])O

>  <SYNONYMS>  (25) 
(2S,5S)-2,5-diamino-6-[(2R,3S,R,5R)-5-(6-amino-9H-purin-9-yl)-3,4-dihydroxytetrahydrofuran-2-yl]hexanoic acid; 6,9-Diamino-1-(6-amino-9H-purin-9-yl)-1,5,6,7,8,9-hexadeoxy-beta-D-ribo-decofuranuronic acid; 6,9-Diamino-1-(6-amino-9H-purin-9-yl)-1,5,6,7,8,9-hexadeoxydecofuranuronic acid; Adenosyl-ornithine; Sinefungin; sinefungina; sinefungine; sinefunginum

>  <ECFP_FP>  (25) 
<rdkit.DataStructs.cDataStructs.ExplicitBitVect object at 0xa266d8bc0>

>  <pki_G>  (25) 
5.560194

>  <pki_D>  (25) 
5.728787

>  <pki_B>  (25) 
5.344396

>  <pki_A>  (25) 
5.142166

>  <SelB>  (25) 
0.215798

>  <SelA>  (25) 
0.418029

>  <SelD>  (25) 
-0.168592

>  <AvgABSel>  (25) 
0.316913

>  <MACCS_FP>  (25) 
[0. 0. 0. 0. 0. 0. 0. 0. 0. 0. 0. 0. 0. 0. 0. 0. 0. 0. 0. 0. 0. 0. 0. 0.
 0. 0. 0. 0. 0. 0. 0. 0. 0. 0. 0. 0. 0. 0. 1. 0. 0. 0. 0. 0. 0. 0. 0. 0.
 0. 0. 0. 0. 0. 0. 1. 0. 0. 1. 0. 0. 0. 0. 1. 0. 0. 1. 0. 0. 0. 0. 0. 0.
 1. 0. 0. 1. 0. 1. 0. 1. 1. 0. 0. 1. 1. 1. 0. 0. 0. 1. 1. 1. 1. 0. 0. 1.
 1. 1. 1. 0. 0. 1. 0. 0. 1. 1. 0. 0. 0. 0. 1. 1. 0. 0. 0. 0. 0. 1. 1. 0.
 1. 1. 1. 1. 0. 1. 0. 1. 0. 1. 0. 1. 1. 1. 0. 1. 0. 1. 0. 1. 1. 0. 1. 1.
 0. 0. 1. 1. 1. 0. 1. 1. 1. 0. 1. 1. 1. 1. 1. 1. 0. 1. 1. 1. 1. 1. 0.]

>  <MACCS_pki_G>  (25) 
5.76209

>  <MACCS_pki_D>  (25) 
5.728695

>  <MACCS_pki_B>  (25) 
5.508242

>  <MACCS_pki_A>  (25) 
5.88858

>  <MACCS_SelB>  (25) 
0.253849

>  <MACCS_SelA>  (25) 
-0.126489

>  <MACCS_SelD>  (25) 
0.033395

>  <MACCSAvgABSel>  (25) 
0.06368

>  <Pharm2D_FP>  (25) 
[0. 0. 0. ... 0. 0. 0.]

>  <Pharm2D_pki_G>  (25) 
6.663993

>  <Pharm2D_pki_D>  (25) 
6.037135

>  <Pharm2D_pki_B>  (25) 
5.679129

>  <Pharm2D_pki_A>  (25) 
5.773052

>  <Pharm2D_SelB>  (25) 
0.984864

>  <Pharm2D_SelA>  (25) 
0.890941

>  <Pharm2D_SelD>  (25) 
0.626858

>  <Pharm2DAvgABSel>  (25) 
0.937902

>  <QED>  (25) 
0.306822

$$$$
