DB08569
     RDKit          2D

 28 31  0  0  0  0  0  0  0  0999 V2000
   -3.3702    2.5103    0.0000 N   0  0  0  0  0  0  0  0  0  0  0  0
    1.4717    1.6853    0.0000 N   0  0  0  0  0  0  0  0  0  0  0  0
   -2.1006    2.9228    0.0000 C   0  0  0  0  0  0  0  0  0  0  0  0
   -1.3861    3.3353    0.0000 C   0  0  0  0  0  0  0  0  0  0  0  0
   -0.6717    2.9228    0.0000 C   0  0  0  0  0  0  0  0  0  0  0  0
   -2.8852    1.8428    0.0000 C   0  0  0  0  0  0  0  0  0  0  0  0
   -1.3861   -3.2647    0.0000 C   0  0  0  0  0  0  0  0  0  0  0  0
   -0.6717   -4.5022    0.0000 C   0  0  0  0  0  0  0  0  0  0  0  0
   -3.1402    1.0582    0.0000 C   0  0  0  0  0  0  0  0  0  0  0  0
   -0.6717   -2.8522    0.0000 C   0  0  0  0  0  0  0  0  0  0  0  0
    0.0428    1.6853    0.0000 C   0  0  0  0  0  0  0  0  0  0  0  0
    0.0428    0.8603    0.0000 C   0  0  0  0  0  0  0  0  0  0  0  0
    0.7573    0.4478    0.0000 C   0  0  0  0  0  0  0  0  0  0  0  0
    0.0428   -0.7897    0.0000 C   0  0  0  0  0  0  0  0  0  0  0  0
   -0.6717    2.0978    0.0000 C   0  0  0  0  0  0  0  0  0  0  0  0
   -1.3861    1.6853    0.0000 C   0  0  0  0  0  0  0  0  0  0  0  0
   -2.1006    2.0978    0.0000 C   0  0  0  0  0  0  0  0  0  0  0  0
   -2.8852    3.1777    0.0000 N   0  0  0  0  0  0  0  0  0  0  0  0
   -1.3861   -4.0897    0.0000 C   0  0  0  0  0  0  0  0  0  0  0  0
    0.0428   -3.2647    0.0000 C   0  0  0  0  0  0  0  0  0  0  0  0
    1.4717    0.8603    0.0000 C   0  0  0  0  0  0  0  0  0  0  0  0
    0.7573    2.0978    0.0000 C   0  0  0  0  0  0  0  0  0  0  0  0
    0.0428   -4.0897    0.0000 C   0  0  0  0  0  0  0  0  0  0  0  0
    0.7573   -0.3772    0.0000 O   0  0  0  0  0  0  0  0  0  0  0  0
    0.0428   -1.6147    0.0000 C   0  0  0  0  0  0  0  0  0  0  0  0
   -0.6717   -2.0272    0.0000 C   0  0  0  0  0  0  0  0  0  0  0  0
    0.7573   -2.0272    0.0000 N   0  0  0  0  0  0  0  0  0  0  0  0
   -0.6717   -5.3272    0.0000 Br  0  0  0  0  0  0  0  0  0  0  0  0
  1  6  2  0
  1 18  1  0
  2 21  2  0
  2 22  1  0
  3  4  1  0
  3 17  2  0
  3 18  1  0
  4  5  2  0
  5 15  1  0
  6  9  1  0
  6 17  1  0
  7 10  2  0
  7 19  1  0
  8 19  2  0
  8 23  1  0
  8 28  1  0
 10 20  1  0
 10 26  1  0
 11 12  1  0
 11 15  1  0
 11 22  2  0
 12 13  2  0
 13 21  1  0
 13 24  1  0
 14 24  1  0
 14 25  1  0
 15 16  2  0
 16 17  1  0
 20 23  2  0
 25 26  1  0
 25 27  1  1
M  END
>  <ALOGPS_LOGP>  (1) 
4.16

>  <ALOGPS_LOGS>  (1) 
-5.30

>  <ALOGPS_SOLUBILITY>  (1) 
2.18e-03 g/l

>  <DATABASE_NAME>  (1) 
drugbank

>  <DRUGBANK_ID>  (1) 
DB08569

>  <DRUG_GROUPS>  (1) 
experimental

>  <EXACT_MASS>  (1) 
436.089873961

>  <FORMULA>  (1) 
C22H21BrN4O

>  <GENERIC_NAME>  (1) 
3-PYRIDIN-4-YL-2,4-DIHYDRO-INDENO[1,2-.C.] PYRAZOLE

>  <ID>  (1) 
SS4

>  <INCHI_IDENTIFIER>  (1) 
InChI=1S/C22H21BrN4O/c1-14-21-10-16(4-7-22(21)27-26-14)17-9-20(12-25-11-17)28-13-19(24)8-15-2-5-18(23)6-3-15/h2-7,9-12,19H,8,13,24H2,1H3,(H,26,27)/t19-/m0/s1

>  <INCHI_KEY>  (1) 
VLPMRZSKJUTRBQ-IBGZPJMESA-N

>  <INTERNATIONAL_BRANDS>  (1) 
nan

>  <JCHEM_ACCEPTOR_COUNT>  (1) 
4

>  <JCHEM_ATOM_COUNT>  (1) 
nan

>  <JCHEM_AVERAGE_POLARIZABILITY>  (1) 
44.09271352895492

>  <JCHEM_BIOAVAILABILITY>  (1) 
1

>  <JCHEM_DONOR_COUNT>  (1) 
2

>  <JCHEM_FORMAL_CHARGE>  (1) 
0

>  <JCHEM_GHOSE_FILTER>  (1) 
1

>  <JCHEM_IUPAC>  (1) 
(2S)-1-(4-bromophenyl)-3-{[5-(3-methyl-1H-indazol-5-yl)pyridin-3-yl]oxy}propan-2-amine

>  <JCHEM_LOGP>  (1) 
3.744229735666666

>  <JCHEM_MDDR_LIKE_RULE>  (1) 
1

>  <JCHEM_NUMBER_OF_RINGS>  (1) 
4

>  <JCHEM_PHYSIOLOGICAL_CHARGE>  (1) 
1

>  <JCHEM_PKA>  (1) 
nan

>  <JCHEM_PKA_STRONGEST_ACIDIC>  (1) 
14.173014456117688

>  <JCHEM_PKA_STRONGEST_BASIC>  (1) 
9.279285926973882

>  <JCHEM_POLAR_SURFACE_AREA>  (1) 
76.82

>  <JCHEM_REFRACTIVITY>  (1) 
114.71750000000002

>  <JCHEM_ROTATABLE_BOND_COUNT>  (1) 
6

>  <JCHEM_RULE_OF_FIVE>  (1) 
1

>  <JCHEM_TRADITIONAL_IUPAC>  (1) 
(2S)-1-(4-bromophenyl)-3-{[5-(3-methyl-1H-indazol-5-yl)pyridin-3-yl]oxy}propan-2-amine

>  <JCHEM_VEBER_RULE>  (1) 
0

>  <MOLECULAR_WEIGHT>  (1) 
437.332

>  <PRODUCTS>  (1) 
nan

>  <SALTS>  (1) 
nan

>  <SECONDARY_ACCESSION_NUMBERS>  (1) 
nan

>  <SMILES>  (1) 
[H][C@@](N)(COC1=CN=CC(=C1)C1=CC2=C(NN=C2C)C=C1)CC1=CC=C(Br)C=C1

>  <SYNONYMS>  (1) 
nan

>  <ECFP_FP>  (1) 
<rdkit.DataStructs.cDataStructs.ExplicitBitVect object at 0xa26b33df0>

>  <pki_G>  (1) 
7.148293

>  <pki_D>  (1) 
7.072535

>  <pki_B>  (1) 
6.371534

>  <pki_A>  (1) 
5.772417

>  <SelB>  (1) 
0.77676

>  <SelA>  (1) 
1.375876

>  <SelD>  (1) 
0.075758

>  <AvgABSel>  (1) 
1.076318

>  <MACCS_FP>  (1) 
[0. 0. 0. 0. 0. 0. 0. 0. 0. 0. 0. 0. 0. 0. 0. 0. 0. 0. 0. 0. 0. 0. 0. 0.
 0. 0. 0. 0. 0. 0. 0. 0. 0. 0. 0. 0. 0. 0. 0. 0. 0. 0. 0. 0. 0. 0. 1. 0.
 0. 0. 0. 0. 1. 0. 0. 0. 0. 0. 0. 0. 0. 0. 1. 0. 0. 1. 0. 0. 0. 1. 0. 0.
 0. 0. 0. 0. 0. 0. 0. 0. 1. 0. 0. 1. 1. 0. 0. 1. 0. 0. 0. 0. 0. 0. 1. 1.
 1. 0. 1. 0. 0. 1. 0. 0. 1. 1. 0. 1. 0. 1. 0. 1. 0. 1. 0. 0. 0. 0. 0. 0.
 1. 1. 0. 0. 1. 1. 1. 1. 0. 0. 0. 1. 0. 0. 1. 0. 0. 1. 0. 0. 0. 0. 1. 1.
 0. 1. 0. 0. 0. 0. 0. 1. 1. 1. 0. 1. 1. 1. 1. 0. 1. 1. 1. 1. 1. 1. 0.]

>  <MACCS_pki_G>  (1) 
7.178563

>  <MACCS_pki_D>  (1) 
6.638685

>  <MACCS_pki_B>  (1) 
6.386019

>  <MACCS_pki_A>  (1) 
5.591964

>  <MACCS_SelB>  (1) 
0.792544

>  <MACCS_SelA>  (1) 
1.586599

>  <MACCS_SelD>  (1) 
0.539878

>  <MACCSAvgABSel>  (1) 
1.189572

>  <Pharm2D_FP>  (1) 
[0. 0. 0. ... 0. 0. 0.]

>  <Pharm2D_pki_G>  (1) 
6.569496

>  <Pharm2D_pki_D>  (1) 
7.229622

>  <Pharm2D_pki_B>  (1) 
6.358321

>  <Pharm2D_pki_A>  (1) 
5.502151

>  <Pharm2D_SelB>  (1) 
0.211176

>  <Pharm2D_SelA>  (1) 
1.067345

>  <Pharm2D_SelD>  (1) 
-0.660125

>  <Pharm2DAvgABSel>  (1) 
0.63926

>  <QED>  (1) 
0.460743

$$$$
DB07107
     RDKit          2D

 28 31  0  0  0  0  0  0  0  0999 V2000
   -1.2344    2.4970    0.0000 C   0  0  0  0  0  0  0  0  0  0  0  0
   -0.4274    2.3254    0.0000 C   0  0  0  0  0  0  0  0  0  0  0  0
    0.1246    2.9385    0.0000 C   0  0  0  0  0  0  0  0  0  0  0  0
   -0.1303    3.7232    0.0000 C   0  0  0  0  0  0  0  0  0  0  0  0
    0.9316    2.7670    0.0000 C   0  0  0  0  0  0  0  0  0  0  0  0
    1.4836    3.3801    0.0000 C   0  0  0  0  0  0  0  0  0  0  0  0
    1.2287    4.1647    0.0000 N   0  0  0  0  0  0  0  0  0  0  0  0
    0.4217    4.3363    0.0000 C   0  0  0  0  0  0  0  0  0  0  0  0
    2.5088   -3.2907    0.0000 C   0  0  0  0  0  0  0  0  0  0  0  0
    1.7944   -3.7032    0.0000 C   0  0  0  0  0  0  0  0  0  0  0  0
    1.0799   -3.2907    0.0000 C   0  0  0  0  0  0  0  0  0  0  0  0
    1.0799   -2.4657    0.0000 C   0  0  0  0  0  0  0  0  0  0  0  0
    1.7944   -2.0532    0.0000 C   0  0  0  0  0  0  0  0  0  0  0  0
    2.5088   -2.4657    0.0000 C   0  0  0  0  0  0  0  0  0  0  0  0
    0.2953   -3.5456    0.0000 N   0  0  0  0  0  0  0  0  0  0  0  0
   -0.1896   -2.8782    0.0000 C   0  0  0  0  0  0  0  0  0  0  0  0
    0.2953   -2.2108    0.0000 C   0  0  0  0  0  0  0  0  0  0  0  0
   -2.8905    0.6577    0.0000 C   0  0  0  0  0  0  0  0  0  0  0  0
   -3.1454    1.4423    0.0000 N   0  0  0  0  0  0  0  0  0  0  0  0
   -2.5934    2.0554    0.0000 C   0  0  0  0  0  0  0  0  0  0  0  0
   -1.7864    1.8839    0.0000 C   0  0  0  0  0  0  0  0  0  0  0  0
   -1.5315    1.0993    0.0000 C   0  0  0  0  0  0  0  0  0  0  0  0
   -2.0835    0.4862    0.0000 C   0  0  0  0  0  0  0  0  0  0  0  0
   -1.8285   -0.2985    0.0000 O   0  0  0  0  0  0  0  0  0  0  0  0
   -1.0216   -0.4700    0.0000 C   0  0  0  0  0  0  0  0  0  0  0  0
   -0.7666   -1.2546    0.0000 C   0  0  0  0  0  0  0  0  0  0  0  0
    0.0403   -1.4261    0.0000 C   0  0  0  0  0  0  0  0  0  0  0  0
   -1.3187   -1.8677    0.0000 N   0  0  0  0  0  0  0  0  0  0  0  0
  1  2  2  0
  1 21  1  0
  2  3  1  0
  3  4  2  0
  3  5  1  0
  4  8  1  0
  5  6  2  0
  6  7  1  0
  7  8  2  0
  9 10  2  0
  9 14  1  0
 10 11  1  0
 11 12  2  0
 11 15  1  0
 12 13  1  0
 12 17  1  0
 13 14  2  0
 15 16  1  0
 16 17  2  0
 17 27  1  0
 18 19  2  0
 18 23  1  0
 19 20  1  0
 20 21  2  0
 21 22  1  0
 22 23  2  0
 23 24  1  0
 24 25  1  0
 25 26  1  0
 26 27  1  0
 26 28  1  6
M  END
>  <ALOGPS_LOGP>  (2) 
3.12

>  <ALOGPS_LOGS>  (2) 
-5.69

>  <ALOGPS_SOLUBILITY>  (2) 
7.53e-04 g/l

>  <DATABASE_NAME>  (2) 
drugbank

>  <DRUGBANK_ID>  (2) 
DB07107

>  <DRUG_GROUPS>  (2) 
experimental

>  <EXACT_MASS>  (2) 
370.179361346

>  <FORMULA>  (2) 
C23H22N4O

>  <GENERIC_NAME>  (2) 
(1S)-2-(1H-INDOL-3-YL)-1-[({5-[(E)-2-PYRIDIN-4-YLVINYL]PYRIDIN-3-YL}OXY)METHYL]ETHYLAMINE

>  <ID>  (2) 
4EA

>  <INCHI_IDENTIFIER>  (2) 
InChI=1S/C23H22N4O/c24-20(12-19-14-27-23-4-2-1-3-22(19)23)16-28-21-11-18(13-26-15-21)6-5-17-7-9-25-10-8-17/h1-11,13-15,20,27H,12,16,24H2/b6-5+/t20-/m0/s1

>  <INCHI_KEY>  (2) 
SGHXFHRRWFLILP-XJDXJNMNSA-N

>  <INTERNATIONAL_BRANDS>  (2) 
nan

>  <JCHEM_ACCEPTOR_COUNT>  (2) 
4

>  <JCHEM_ATOM_COUNT>  (2) 
nan

>  <JCHEM_AVERAGE_POLARIZABILITY>  (2) 
41.933011697844094

>  <JCHEM_BIOAVAILABILITY>  (2) 
1

>  <JCHEM_DONOR_COUNT>  (2) 
2

>  <JCHEM_FORMAL_CHARGE>  (2) 
0

>  <JCHEM_GHOSE_FILTER>  (2) 
1

>  <JCHEM_IUPAC>  (2) 
(2S)-1-(1H-indol-3-yl)-3-({5-[(E)-2-(pyridin-4-yl)ethenyl]pyridin-3-yl}oxy)propan-2-amine

>  <JCHEM_LOGP>  (2) 
3.0947503083333325

>  <JCHEM_MDDR_LIKE_RULE>  (2) 
1

>  <JCHEM_NUMBER_OF_RINGS>  (2) 
4

>  <JCHEM_PHYSIOLOGICAL_CHARGE>  (2) 
1

>  <JCHEM_PKA>  (2) 
nan

>  <JCHEM_PKA_STRONGEST_ACIDIC>  (2) 
17.10772023781099

>  <JCHEM_PKA_STRONGEST_BASIC>  (2) 
9.235441638397388

>  <JCHEM_POLAR_SURFACE_AREA>  (2) 
76.82

>  <JCHEM_REFRACTIVITY>  (2) 
111.73629999999996

>  <JCHEM_ROTATABLE_BOND_COUNT>  (2) 
7

>  <JCHEM_RULE_OF_FIVE>  (2) 
1

>  <JCHEM_TRADITIONAL_IUPAC>  (2) 
(2S)-1-(1H-indol-3-yl)-3-({5-[(E)-2-(pyridin-4-yl)ethenyl]pyridin-3-yl}oxy)propan-2-amine

>  <JCHEM_VEBER_RULE>  (2) 
0

>  <MOLECULAR_WEIGHT>  (2) 
370.447

>  <PRODUCTS>  (2) 
nan

>  <SALTS>  (2) 
nan

>  <SECONDARY_ACCESSION_NUMBERS>  (2) 
nan

>  <SMILES>  (2) 
[H][C@@](N)(COC1=CN=CC(\C=C\C2=CC=NC=C2)=C1)CC1=CNC2=C1C=CC=C2

>  <SYNONYMS>  (2) 
nan

>  <ECFP_FP>  (2) 
<rdkit.DataStructs.cDataStructs.ExplicitBitVect object at 0xa26a50990>

>  <pki_G>  (2) 
6.573702

>  <pki_D>  (2) 
5.740097

>  <pki_B>  (2) 
5.974193

>  <pki_A>  (2) 
5.557281

>  <SelB>  (2) 
0.599509

>  <SelA>  (2) 
1.016421

>  <SelD>  (2) 
0.833604

>  <AvgABSel>  (2) 
0.807965

>  <MACCS_FP>  (2) 
[0. 0. 0. 0. 0. 0. 0. 0. 0. 0. 0. 0. 0. 0. 0. 0. 0. 0. 0. 0. 0. 0. 0. 0.
 0. 0. 0. 0. 0. 0. 0. 0. 0. 0. 0. 0. 0. 0. 0. 0. 0. 0. 0. 0. 0. 0. 0. 0.
 0. 0. 0. 0. 0. 0. 0. 0. 0. 0. 0. 0. 0. 0. 0. 0. 0. 1. 0. 0. 0. 0. 0. 0.
 0. 0. 0. 0. 0. 0. 0. 0. 0. 0. 0. 1. 1. 0. 0. 0. 0. 0. 1. 1. 0. 0. 0. 1.
 1. 0. 1. 1. 0. 1. 0. 0. 1. 1. 0. 0. 0. 1. 0. 1. 0. 1. 0. 0. 0. 0. 0. 0.
 1. 1. 0. 0. 0. 1. 1. 1. 0. 0. 0. 1. 0. 0. 0. 0. 0. 1. 0. 0. 0. 0. 1. 1.
 0. 1. 0. 0. 0. 0. 0. 1. 1. 1. 0. 1. 1. 1. 1. 0. 0. 1. 1. 1. 1. 1. 0.]

>  <MACCS_pki_G>  (2) 
6.153938

>  <MACCS_pki_D>  (2) 
6.242837

>  <MACCS_pki_B>  (2) 
6.279412

>  <MACCS_pki_A>  (2) 
6.136

>  <MACCS_SelB>  (2) 
-0.125473

>  <MACCS_SelA>  (2) 
0.017938

>  <MACCS_SelD>  (2) 
-0.088899

>  <MACCSAvgABSel>  (2) 
-0.053768

>  <Pharm2D_FP>  (2) 
[0. 0. 0. ... 0. 0. 0.]

>  <Pharm2D_pki_G>  (2) 
6.16616

>  <Pharm2D_pki_D>  (2) 
5.325473

>  <Pharm2D_pki_B>  (2) 
5.592175

>  <Pharm2D_pki_A>  (2) 
5.604191

>  <Pharm2D_SelB>  (2) 
0.573985

>  <Pharm2D_SelA>  (2) 
0.561969

>  <Pharm2D_SelD>  (2) 
0.840687

>  <Pharm2DAvgABSel>  (2) 
0.567977

>  <QED>  (2) 
0.513901

$$$$
DB12042
     RDKit          2D

 46 51  0  0  1  0  0  0  0  0999 V2000
    4.0668    2.3479    0.0000 C   0  0  0  0  0  0  0  0  0  0  0  0
    3.3523    1.9354    0.0000 C   0  0  0  0  0  0  0  0  0  0  0  0
    3.3523    1.1104    0.0000 C   0  0  0  0  0  0  0  0  0  0  0  0
    2.6378    0.6979    0.0000 C   0  0  0  0  0  0  0  0  0  0  0  0
    1.9233    1.1104    0.0000 C   0  0  0  0  0  0  0  0  0  0  0  0
    1.1387    0.8555    0.0000 C   0  0  0  0  0  0  0  0  0  0  0  0
    0.6538    1.5229    0.0000 C   0  0  0  0  0  0  0  0  0  0  0  0
    1.1387    2.1904    0.0000 S   0  0  0  0  0  0  0  0  0  0  0  0
    1.9233    1.9354    0.0000 C   0  0  0  0  0  0  0  0  0  0  0  0
    2.6378    2.3479    0.0000 C   0  0  0  0  0  0  0  0  0  0  0  0
   -0.1712    1.5229    0.0000 C   0  0  0  0  0  0  0  0  0  0  0  0
   -0.5837    2.2374    0.0000 O   0  0  0  0  0  0  0  0  0  0  0  0
   -0.5837    0.8085    0.0000 N   0  0  0  0  0  0  0  0  0  0  0  0
   -1.4087    0.8085    0.0000 C   0  0  0  0  0  0  0  0  0  0  0  0
   -2.2157    0.6369    0.0000 C   0  0  0  0  0  0  0  0  0  0  0  0
   -2.6282    1.3514    0.0000 C   0  0  0  0  0  0  0  0  0  0  0  0
   -2.0761    1.9645    0.0000 C   0  0  0  0  0  0  0  0  0  0  0  0
   -1.3225    1.6290    0.0000 C   0  0  0  0  0  0  0  0  0  0  0  0
   -1.3225   -0.0120    0.0000 C   0  0  0  0  0  0  0  0  0  0  0  0
   -1.9899   -0.4969    0.0000 O   0  0  0  0  0  0  0  0  0  0  0  0
   -0.5688   -0.3476    0.0000 N   0  0  0  0  0  0  0  0  0  0  0  0
   -0.4826   -1.1680    0.0000 C   0  0  0  0  0  0  0  0  0  0  0  0
   -1.1500   -1.6530    0.0000 C   0  0  0  0  0  0  0  0  0  0  0  0
   -1.0638   -2.4735    0.0000 C   0  0  0  0  0  0  0  0  0  0  0  0
   -0.3101   -2.8090    0.0000 C   0  0  0  0  0  0  0  0  0  0  0  0
   -0.2238   -3.6295    0.0000 C   0  0  0  0  0  0  0  0  0  0  0  0
   -0.8913   -4.1144    0.0000 C   0  0  0  0  0  0  0  0  0  0  0  0
   -1.6450   -3.7789    0.0000 C   0  0  0  0  0  0  0  0  0  0  0  0
   -1.7312   -2.9584    0.0000 C   0  0  0  0  0  0  0  0  0  0  0  0
    0.2711   -1.5036    0.0000 C   0  0  0  0  0  0  0  0  0  0  0  0
    0.9386   -1.0187    0.0000 O   0  0  0  0  0  0  0  0  0  0  0  0
    0.3574   -2.3241    0.0000 N   0  0  0  0  0  0  0  0  0  0  0  0
    1.1110   -2.6596    0.0000 C   0  0  0  0  0  0  0  0  0  0  0  0
    1.1973   -3.4801    0.0000 C   0  0  0  0  0  0  0  0  0  0  0  0
    1.9509   -3.8157    0.0000 C   0  0  0  0  0  0  0  0  0  0  0  0
    2.0372   -4.6362    0.0000 C   0  0  0  0  0  0  0  0  0  0  0  0
    1.3697   -5.1211    0.0000 N   0  0  0  0  0  0  0  0  0  0  0  0
    0.6161   -4.7855    0.0000 C   0  0  0  0  0  0  0  0  0  0  0  0
    0.5298   -3.9650    0.0000 C   0  0  0  0  0  0  0  0  0  0  0  0
    1.4560   -5.9416    0.0000 C   0  0  0  0  0  0  0  0  0  0  0  0
    2.2097   -6.2771    0.0000 C   0  0  0  0  0  0  0  0  0  0  0  0
    2.8771   -5.7922    0.0000 C   0  0  0  0  0  0  0  0  0  0  0  0
    3.6308   -6.1278    0.0000 C   0  0  0  0  0  0  0  0  0  0  0  0
    3.7170   -6.9482    0.0000 O   0  0  0  0  0  0  0  0  0  0  0  0
    3.0496   -7.4332    0.0000 C   0  0  0  0  0  0  0  0  0  0  0  0
    2.2959   -7.0976    0.0000 C   0  0  0  0  0  0  0  0  0  0  0  0
  1  2  1  0
  2  3  2  0
  3  4  1  0
  4  5  2  0
  5  6  1  0
  6  7  2  0
  7  8  1  0
  8  9  1  0
  5  9  1  0
  9 10  2  0
  2 10  1  0
  7 11  1  0
 11 12  2  0
 11 13  1  0
 13 14  1  0
 14 15  1  0
 15 16  1  0
 16 17  1  0
 17 18  1  0
 14 18  1  0
 14 19  1  0
 19 20  2  0
 19 21  1  0
 22 21  1  0
 22 23  1  1
 23 24  1  0
 24 25  2  0
 25 26  1  0
 26 27  2  0
 27 28  1  0
 28 29  2  0
 24 29  1  0
 22 30  1  0
 30 31  2  0
 30 32  1  0
 32 33  1  0
 33 34  1  0
 34 35  1  0
 35 36  1  0
 36 37  1  0
 37 38  1  0
 38 39  1  0
 34 39  1  0
 37 40  1  0
 40 41  1  0
 41 42  1  0
 42 43  1  0
 43 44  1  0
 44 45  1  0
 45 46  1  0
 41 46  1  0
M  END
>  <ALOGPS_LOGP>  (3) 
4.97

>  <ALOGPS_LOGS>  (3) 
-6.31

>  <ALOGPS_SOLUBILITY>  (3) 
3.14e-04 g/l

>  <DATABASE_NAME>  (3) 
drugbank

>  <DRUGBANK_ID>  (3) 
DB12042

>  <DRUG_GROUPS>  (3) 
investigational

>  <EXACT_MASS>  (3) 
644.339627216

>  <FORMULA>  (3) 
C37H48N4O4S

>  <GENERIC_NAME>  (3) 
Ibodutant

>  <ID>  (3) 


>  <INCHI_IDENTIFIER>  (3) 
InChI=1S/C37H48N4O4S/c1-26-9-10-30-23-33(46-32(30)21-26)35(43)40-37(15-5-6-16-37)36(44)39-31(22-27-7-3-2-4-8-27)34(42)38-24-28-11-17-41(18-12-28)25-29-13-19-45-20-14-29/h2-4,7-10,21,23,28-29,31H,5-6,11-20,22,24-25H2,1H3,(H,38,42)(H,39,44)(H,40,43)/t31-/m1/s1

>  <INCHI_KEY>  (3) 
YQYSVMKCMIUCHY-WJOKGBTCSA-N

>  <INTERNATIONAL_BRANDS>  (3) 
nan

>  <JCHEM_ACCEPTOR_COUNT>  (3) 
5

>  <JCHEM_ATOM_COUNT>  (3) 
94

>  <JCHEM_AVERAGE_POLARIZABILITY>  (3) 
72.96023761114385

>  <JCHEM_BIOAVAILABILITY>  (3) 
0

>  <JCHEM_DONOR_COUNT>  (3) 
3

>  <JCHEM_FORMAL_CHARGE>  (3) 
0

>  <JCHEM_GHOSE_FILTER>  (3) 
0

>  <JCHEM_IUPAC>  (3) 
6-methyl-N-(1-{[(1R)-1-[({1-[(oxan-4-yl)methyl]piperidin-4-yl}methyl)carbamoyl]-2-phenylethyl]carbamoyl}cyclopentyl)-1-benzothiophene-2-carboxamide

>  <JCHEM_LOGP>  (3) 
5.076014648666667

>  <JCHEM_MDDR_LIKE_RULE>  (3) 
1

>  <JCHEM_NUMBER_OF_RINGS>  (3) 
6

>  <JCHEM_PHYSIOLOGICAL_CHARGE>  (3) 
1

>  <JCHEM_PKA>  (3) 
14.697483603914751

>  <JCHEM_PKA_STRONGEST_ACIDIC>  (3) 
12.37386308982633

>  <JCHEM_PKA_STRONGEST_BASIC>  (3) 
10.0339974822379

>  <JCHEM_POLAR_SURFACE_AREA>  (3) 
99.77000000000001

>  <JCHEM_REFRACTIVITY>  (3) 
182.93399999999997

>  <JCHEM_ROTATABLE_BOND_COUNT>  (3) 
11

>  <JCHEM_RULE_OF_FIVE>  (3) 
0

>  <JCHEM_TRADITIONAL_IUPAC>  (3) 
6-methyl-N-(1-{[(1R)-1-({[1-(oxan-4-ylmethyl)piperidin-4-yl]methyl}carbamoyl)-2-phenylethyl]carbamoyl}cyclopentyl)-1-benzothiophene-2-carboxamide

>  <JCHEM_VEBER_RULE>  (3) 
0

>  <MOLECULAR_WEIGHT>  (3) 
644.88

>  <PRODUCTS>  (3) 
nan

>  <SALTS>  (3) 
nan

>  <SECONDARY_ACCESSION_NUMBERS>  (3) 
nan

>  <SMILES>  (3) 
CC1=CC=C2C=C(SC2=C1)C(=O)NC1(CCCC1)C(=O)N[C@H](CC1=CC=CC=C1)C(=O)NCC1CCN(CC2CCOCC2)CC1

>  <SYNONYMS>  (3) 
nan

>  <ECFP_FP>  (3) 
<rdkit.DataStructs.cDataStructs.ExplicitBitVect object at 0xa26bffb20>

>  <pki_G>  (3) 
6.422914

>  <pki_D>  (3) 
5.773784

>  <pki_B>  (3) 
5.473875

>  <pki_A>  (3) 
5.724324

>  <SelB>  (3) 
0.949039

>  <SelA>  (3) 
0.69859

>  <SelD>  (3) 
0.64913

>  <AvgABSel>  (3) 
0.823814

>  <MACCS_FP>  (3) 
[0. 0. 0. 0. 0. 0. 0. 0. 0. 0. 0. 0. 0. 0. 0. 0. 0. 0. 0. 0. 0. 0. 0. 0.
 0. 0. 0. 0. 0. 0. 0. 0. 0. 0. 0. 0. 1. 0. 0. 0. 0. 0. 0. 0. 0. 0. 0. 0.
 0. 0. 0. 0. 0. 0. 1. 0. 0. 1. 0. 0. 0. 0. 0. 0. 0. 0. 1. 0. 0. 0. 0. 0.
 0. 0. 0. 1. 0. 0. 0. 1. 0. 1. 1. 1. 0. 1. 1. 0. 1. 0. 1. 1. 1. 0. 0. 1.
 1. 0. 1. 0. 1. 1. 0. 0. 1. 1. 0. 0. 0. 1. 1. 1. 1. 0. 0. 0. 0. 1. 1. 0.
 1. 1. 1. 0. 0. 1. 0. 0. 1. 1. 0. 1. 1. 1. 0. 0. 1. 1. 1. 0. 1. 0. 1. 0.
 0. 1. 1. 1. 1. 0. 0. 1. 0. 1. 1. 1. 1. 1. 1. 1. 1. 1. 1. 1. 1. 1. 0.]

>  <MACCS_pki_G>  (3) 
5.757172

>  <MACCS_pki_D>  (3) 
5.678412

>  <MACCS_pki_B>  (3) 
5.48495

>  <MACCS_pki_A>  (3) 
5.743909

>  <MACCS_SelB>  (3) 
0.272222

>  <MACCS_SelA>  (3) 
0.013263

>  <MACCS_SelD>  (3) 
0.07876

>  <MACCSAvgABSel>  (3) 
0.142743

>  <Pharm2D_FP>  (3) 
[0. 0. 0. ... 0. 0. 0.]

>  <Pharm2D_pki_G>  (3) 
5.72831

>  <Pharm2D_pki_D>  (3) 
5.5774

>  <Pharm2D_pki_B>  (3) 
5.45636

>  <Pharm2D_pki_A>  (3) 
5.510271

>  <Pharm2D_SelB>  (3) 
0.27195

>  <Pharm2D_SelA>  (3) 
0.218039

>  <Pharm2D_SelD>  (3) 
0.150909

>  <Pharm2DAvgABSel>  (3) 
0.244994

>  <QED>  (3) 
0.265513

$$$$
DB03890
     RDKit          2D

 27 28  0  0  0  0  0  0  0  0999 V2000
    0.6548    2.2429    0.0000 O   0  0  0  0  0  0  0  0  0  0  0  0
    0.6548    1.4179    0.0000 C   0  0  0  0  0  0  0  0  0  0  0  0
    1.3693    1.0054    0.0000 C   0  0  0  0  0  0  0  0  0  0  0  0
    2.0838    1.4179    0.0000 C   0  0  0  0  0  0  0  0  0  0  0  0
    2.0838    2.2429    0.0000 C   0  0  0  0  0  0  0  0  0  0  0  0
    2.7982    1.0054    0.0000 C   0  0  0  0  0  0  0  0  0  0  0  0
    1.3693    0.1804    0.0000 C   0  0  0  0  0  0  0  0  0  0  0  0
    2.0367   -0.3045    0.0000 C   0  0  0  0  0  0  0  0  0  0  0  0
    2.8214   -0.0496    0.0000 N   0  0  0  0  0  0  0  0  0  0  0  0
    3.4344   -0.6016    0.0000 S   0  0  0  0  0  0  0  0  0  0  0  0
    4.0475   -1.1537    0.0000 O   0  0  0  0  0  0  0  0  0  0  0  0
    3.9865    0.0115    0.0000 O   0  0  0  0  0  0  0  0  0  0  0  0
    2.8824   -1.2147    0.0000 C   0  0  0  0  0  0  0  0  0  0  0  0
    1.7818   -1.0892    0.0000 C   0  0  0  0  0  0  0  0  0  0  0  0
    0.9568   -1.0892    0.0000 C   0  0  0  0  0  0  0  0  0  0  0  0
    0.7019   -0.3045    0.0000 N   0  0  0  0  0  0  0  0  0  0  0  0
   -0.0828   -0.0496    0.0000 C   0  0  0  0  0  0  0  0  0  0  0  0
   -0.2543    0.7574    0.0000 O   0  0  0  0  0  0  0  0  0  0  0  0
   -0.6959   -0.6016    0.0000 C   0  0  0  0  0  0  0  0  0  0  0  0
   -1.4805   -0.3467    0.0000 C   0  0  0  0  0  0  0  0  0  0  0  0
   -2.0936   -0.8987    0.0000 C   0  0  0  0  0  0  0  0  0  0  0  0
   -2.8782   -0.6438    0.0000 N   0  0  0  0  0  0  0  0  0  0  0  0
   -3.4913   -1.1958    0.0000 C   0  0  0  0  0  0  0  0  0  0  0  0
   -4.2759   -0.9409    0.0000 C   0  0  0  0  0  0  0  0  0  0  0  0
   -4.4474   -0.1339    0.0000 C   0  0  0  0  0  0  0  0  0  0  0  0
   -3.8344    0.4181    0.0000 C   0  0  0  0  0  0  0  0  0  0  0  0
   -3.0497    0.1632    0.0000 C   0  0  0  0  0  0  0  0  0  0  0  0
  1  2  2  0
  3  2  1  1
  3  4  1  0
  7  3  1  0
  4  5  1  0
  4  6  1  0
  7  8  1  0
  7 16  1  1
  8  9  1  6
  8 14  1  0
  9 10  1  0
 10 11  2  0
 10 12  2  0
 10 13  1  0
 14 15  1  0
 15 16  1  0
 16 17  1  0
 17 18  2  0
 17 19  1  0
 19 20  2  0
 20 21  1  0
 21 22  1  0
 22 23  1  0
 22 27  1  0
 23 24  1  0
 24 25  1  0
 25 26  1  0
 26 27  1  0
M  END
>  <ALOGPS_LOGP>  (4) 
1.65

>  <ALOGPS_LOGS>  (4) 
-2.99

>  <ALOGPS_SOLUBILITY>  (4) 
4.07e-01 g/l

>  <DATABASE_NAME>  (4) 
drugbank

>  <DRUGBANK_ID>  (4) 
DB03890

>  <DRUG_GROUPS>  (4) 
experimental

>  <EXACT_MASS>  (4) 
399.219177249

>  <FORMULA>  (4) 
C19H33N3O4S

>  <GENERIC_NAME>  (4) 
N-[2-(1-Formyl-2-Methyl-Propyl)-1-(4-Piperidin-1-Yl-but-2-Enoyl)-Pyrrolidin-3-Yl]-Methanesulfonamide

>  <ID>  (4) 
616

>  <INCHI_IDENTIFIER>  (4) 
InChI=1S/C19H33N3O4S/c1-15(2)16(14-23)19-17(20-27(3,25)26)9-13-22(19)18(24)8-7-12-21-10-5-4-6-11-21/h7-8,14-17,19-20H,4-6,9-13H2,1-3H3/b8-7+/t16-,17+,19-/m0/s1

>  <INCHI_KEY>  (4) 
BSBJWRKWANAVRQ-POTLKAILSA-N

>  <INTERNATIONAL_BRANDS>  (4) 
nan

>  <JCHEM_ACCEPTOR_COUNT>  (4) 
5

>  <JCHEM_ATOM_COUNT>  (4) 
nan

>  <JCHEM_AVERAGE_POLARIZABILITY>  (4) 
43.62276201267612

>  <JCHEM_BIOAVAILABILITY>  (4) 
1

>  <JCHEM_DONOR_COUNT>  (4) 
1

>  <JCHEM_FORMAL_CHARGE>  (4) 
0

>  <JCHEM_GHOSE_FILTER>  (4) 
1

>  <JCHEM_IUPAC>  (4) 
N-[(2S,3R)-2-[(2S)-3-methyl-1-oxobutan-2-yl]-1-[(2E)-4-(piperidin-1-yl)but-2-enoyl]pyrrolidin-3-yl]methanesulfonamide

>  <JCHEM_LOGP>  (4) 
0.1941576883333333

>  <JCHEM_MDDR_LIKE_RULE>  (4) 
0

>  <JCHEM_NUMBER_OF_RINGS>  (4) 
2

>  <JCHEM_PHYSIOLOGICAL_CHARGE>  (4) 
1

>  <JCHEM_PKA>  (4) 
14.42419039478619

>  <JCHEM_PKA_STRONGEST_ACIDIC>  (4) 
10.358087117953506

>  <JCHEM_PKA_STRONGEST_BASIC>  (4) 
7.781583944048731

>  <JCHEM_POLAR_SURFACE_AREA>  (4) 
86.79

>  <JCHEM_REFRACTIVITY>  (4) 
107.03809999999997

>  <JCHEM_ROTATABLE_BOND_COUNT>  (4) 
7

>  <JCHEM_RULE_OF_FIVE>  (4) 
1

>  <JCHEM_TRADITIONAL_IUPAC>  (4) 
N-[(2S,3R)-2-[(2S)-3-methyl-1-oxobutan-2-yl]-1-[(2E)-4-(piperidin-1-yl)but-2-enoyl]pyrrolidin-3-yl]methanesulfonamide

>  <JCHEM_VEBER_RULE>  (4) 
0

>  <MOLECULAR_WEIGHT>  (4) 
399.548

>  <PRODUCTS>  (4) 
nan

>  <SALTS>  (4) 
nan

>  <SECONDARY_ACCESSION_NUMBERS>  (4) 
EXPT00265

>  <SMILES>  (4) 
O=C[C@@]([H])(C(C)C)[C@]1([H])N(CC[C@@]1([H])NS(=O)(=O)C)C(=O)\C=C\CN1CCCCC1

>  <SYNONYMS>  (4) 
nan

>  <ECFP_FP>  (4) 
<rdkit.DataStructs.cDataStructs.ExplicitBitVect object at 0xa2691dc60>

>  <pki_G>  (4) 
6.348807

>  <pki_D>  (4) 
5.769459

>  <pki_B>  (4) 
5.503238

>  <pki_A>  (4) 
5.691422

>  <SelB>  (4) 
0.845569

>  <SelA>  (4) 
0.657385

>  <SelD>  (4) 
0.579348

>  <AvgABSel>  (4) 
0.751477

>  <MACCS_FP>  (4) 
[0. 0. 0. 0. 0. 0. 0. 0. 0. 0. 0. 0. 0. 0. 0. 0. 0. 0. 0. 0. 0. 0. 0. 0.
 0. 0. 0. 0. 0. 0. 0. 0. 1. 1. 0. 0. 0. 0. 0. 0. 0. 0. 0. 0. 0. 0. 0. 0.
 0. 0. 0. 1. 0. 0. 0. 1. 0. 0. 1. 0. 1. 1. 0. 0. 0. 0. 0. 1. 0. 1. 0. 0.
 0. 1. 1. 1. 0. 0. 0. 1. 1. 0. 0. 1. 0. 1. 1. 0. 1. 0. 1. 1. 1. 1. 1. 0.
 1. 1. 1. 1. 1. 0. 1. 0. 1. 0. 1. 0. 1. 0. 1. 1. 1. 0. 0. 0. 0. 1. 1. 0.
 1. 1. 1. 0. 1. 0. 0. 0. 1. 1. 1. 0. 0. 1. 0. 0. 1. 1. 1. 0. 1. 1. 1. 0.
 0. 0. 1. 1. 1. 1. 1. 1. 0. 1. 1. 1. 1. 0. 1. 1. 1. 1. 0. 1. 1. 1. 0.]

>  <MACCS_pki_G>  (4) 
6.296321

>  <MACCS_pki_D>  (4) 
6.243654

>  <MACCS_pki_B>  (4) 
5.456605

>  <MACCS_pki_A>  (4) 
5.526444

>  <MACCS_SelB>  (4) 
0.839716

>  <MACCS_SelA>  (4) 
0.769877

>  <MACCS_SelD>  (4) 
0.052667

>  <MACCSAvgABSel>  (4) 
0.804796

>  <Pharm2D_FP>  (4) 
[0. 0. 0. ... 0. 0. 0.]

>  <Pharm2D_pki_G>  (4) 
5.84071

>  <Pharm2D_pki_D>  (4) 
5.704683

>  <Pharm2D_pki_B>  (4) 
5.377624

>  <Pharm2D_pki_A>  (4) 
4.846609

>  <Pharm2D_SelB>  (4) 
0.463087

>  <Pharm2D_SelA>  (4) 
0.994101

>  <Pharm2D_SelD>  (4) 
0.136027

>  <Pharm2DAvgABSel>  (4) 
0.728594

>  <QED>  (4) 
0.486379

$$$$
DB07235
     RDKit          2D

 28 30  0  0  0  0  0  0  0  0999 V2000
    0.5726   -1.2449    0.0000 O   0  0  0  0  0  0  0  0  0  0  0  0
    0.5726   -0.4199    0.0000 C   0  0  0  0  0  0  0  0  0  0  0  0
   -0.1418   -0.0074    0.0000 C   0  0  0  0  0  0  0  0  0  0  0  0
   -0.8955   -0.3430    0.0000 S   0  0  0  0  0  0  0  0  0  0  0  0
   -0.2281    0.8131    0.0000 C   0  0  0  0  0  0  0  0  0  0  0  0
   -1.0350    0.9846    0.0000 C   0  0  0  0  0  0  0  0  0  0  0  0
   -1.4475    0.2701    0.0000 C   0  0  0  0  0  0  0  0  0  0  0  0
   -2.2680    0.1839    0.0000 C   0  0  0  0  0  0  0  0  0  0  0  0
   -2.6036   -0.5698    0.0000 C   0  0  0  0  0  0  0  0  0  0  0  0
   -2.7529    0.8513    0.0000 N   0  0  0  0  0  0  0  0  0  0  0  0
   -3.5734    0.7651    0.0000 C   0  0  0  0  0  0  0  0  0  0  0  0
   -4.0583    1.4325    0.0000 N   0  0  0  0  0  0  0  0  0  0  0  0
   -4.8788    1.3463    0.0000 C   0  0  0  0  0  0  0  0  0  0  0  0
   -3.9090    0.0114    0.0000 N   0  0  0  0  0  0  0  0  0  0  0  0
   -3.4241   -0.6560    0.0000 C   0  0  0  0  0  0  0  0  0  0  0  0
    1.2871   -0.0074    0.0000 N   0  0  0  0  0  0  0  0  0  0  0  0
    2.0016   -0.4199    0.0000 C   0  0  0  0  0  0  0  0  0  0  0  0
    2.0016   -1.2449    0.0000 C   0  0  0  0  0  0  0  0  0  0  0  0
    1.2871   -1.6574    0.0000 N   0  0  0  0  0  0  0  0  0  0  0  0
    2.7161   -0.0074    0.0000 C   0  0  0  0  0  0  0  0  0  0  0  0
    3.4305   -0.4199    0.0000 C   0  0  0  0  0  0  0  0  0  0  0  0
    4.1450   -0.0074    0.0000 C   0  0  0  0  0  0  0  0  0  0  0  0
    4.8595   -0.4199    0.0000 C   0  0  0  0  0  0  0  0  0  0  0  0
    4.8595   -1.2449    0.0000 C   0  0  0  0  0  0  0  0  0  0  0  0
    5.5739   -1.6574    0.0000 Cl  0  0  0  0  0  0  0  0  0  0  0  0
    4.1450   -1.6574    0.0000 C   0  0  0  0  0  0  0  0  0  0  0  0
    3.4305   -1.2449    0.0000 C   0  0  0  0  0  0  0  0  0  0  0  0
    2.7161   -1.6574    0.0000 Cl  0  0  0  0  0  0  0  0  0  0  0  0
  1  2  2  0
  2  3  1  0
  2 16  1  0
  3  4  1  0
  3  5  2  0
  4  7  1  0
  5  6  1  0
  6  7  2  0
  7  8  1  0
  8  9  2  0
  8 10  1  0
  9 15  1  0
 10 11  2  0
 11 12  1  0
 11 14  1  0
 12 13  1  0
 14 15  2  0
 17 16  1  0
 17 18  1  1
 17 20  1  0
 18 19  1  0
 20 21  1  0
 21 22  2  0
 21 27  1  0
 22 23  1  0
 23 24  2  0
 24 25  1  0
 24 26  1  0
 26 27  2  0
 27 28  1  0
M  END
>  <ALOGPS_LOGP>  (5) 
4.14

>  <ALOGPS_LOGS>  (5) 
-5.53

>  <ALOGPS_SOLUBILITY>  (5) 
1.29e-03 g/l

>  <DATABASE_NAME>  (5) 
drugbank

>  <DRUGBANK_ID>  (5) 
DB07235

>  <DRUG_GROUPS>  (5) 
experimental

>  <EXACT_MASS>  (5) 
435.068736359

>  <FORMULA>  (5) 
C19H19Cl2N5OS

>  <GENERIC_NAME>  (5) 
N-[(1S)-2-AMINO-1-(2,4-DICHLOROBENZYL)ETHYL]-5-[2-(METHYLAMINO)PYRIMIDIN-4-YL]THIOPHENE-2-CARBOXAMIDE

>  <ID>  (5) 
796

>  <INCHI_IDENTIFIER>  (5) 
InChI=1S/C19H19Cl2N5OS/c1-23-19-24-7-6-15(26-19)16-4-5-17(28-16)18(27)25-13(10-22)8-11-2-3-12(20)9-14(11)21/h2-7,9,13H,8,10,22H2,1H3,(H,25,27)(H,23,24,26)/t13-/m0/s1

>  <INCHI_KEY>  (5) 
HHOVRZGUSBMKKU-ZDUSSCGKSA-N

>  <INTERNATIONAL_BRANDS>  (5) 
nan

>  <JCHEM_ACCEPTOR_COUNT>  (5) 
5

>  <JCHEM_ATOM_COUNT>  (5) 
nan

>  <JCHEM_AVERAGE_POLARIZABILITY>  (5) 
44.87474379050872

>  <JCHEM_BIOAVAILABILITY>  (5) 
1

>  <JCHEM_DONOR_COUNT>  (5) 
3

>  <JCHEM_FORMAL_CHARGE>  (5) 
0

>  <JCHEM_GHOSE_FILTER>  (5) 
1

>  <JCHEM_IUPAC>  (5) 
N-[(2S)-1-amino-3-(2,4-dichlorophenyl)propan-2-yl]-5-[2-(methylamino)pyrimidin-4-yl]thiophene-2-carboxamide

>  <JCHEM_LOGP>  (5) 
3.702286049

>  <JCHEM_MDDR_LIKE_RULE>  (5) 
1

>  <JCHEM_NUMBER_OF_RINGS>  (5) 
3

>  <JCHEM_PHYSIOLOGICAL_CHARGE>  (5) 
1

>  <JCHEM_PKA>  (5) 
16.385031578810956

>  <JCHEM_PKA_STRONGEST_ACIDIC>  (5) 
14.170972037186878

>  <JCHEM_PKA_STRONGEST_BASIC>  (5) 
9.024248713889616

>  <JCHEM_POLAR_SURFACE_AREA>  (5) 
92.92999999999999

>  <JCHEM_REFRACTIVITY>  (5) 
114.87259999999996

>  <JCHEM_ROTATABLE_BOND_COUNT>  (5) 
7

>  <JCHEM_RULE_OF_FIVE>  (5) 
1

>  <JCHEM_TRADITIONAL_IUPAC>  (5) 
N-[(2S)-1-amino-3-(2,4-dichlorophenyl)propan-2-yl]-5-[2-(methylamino)pyrimidin-4-yl]thiophene-2-carboxamide

>  <JCHEM_VEBER_RULE>  (5) 
0

>  <MOLECULAR_WEIGHT>  (5) 
436.358

>  <PRODUCTS>  (5) 
nan

>  <SALTS>  (5) 
nan

>  <SECONDARY_ACCESSION_NUMBERS>  (5) 
nan

>  <SMILES>  (5) 
[H][C@@](CN)(CC1=C(Cl)C=C(Cl)C=C1)NC(=O)C1=CC=C(S1)C1=CC=NC(NC)=N1

>  <SYNONYMS>  (5) 
nan

>  <ECFP_FP>  (5) 
<rdkit.DataStructs.cDataStructs.ExplicitBitVect object at 0xa26a63df0>

>  <pki_G>  (5) 
6.293748

>  <pki_D>  (5) 
5.784232

>  <pki_B>  (5) 
5.637493

>  <pki_A>  (5) 
5.524414

>  <SelB>  (5) 
0.656255

>  <SelA>  (5) 
0.769334

>  <SelD>  (5) 
0.509516

>  <AvgABSel>  (5) 
0.712794

>  <MACCS_FP>  (5) 
[0. 0. 0. 0. 0. 0. 0. 0. 0. 0. 0. 0. 0. 0. 0. 0. 0. 0. 0. 0. 0. 0. 0. 0.
 0. 1. 0. 0. 0. 0. 0. 0. 0. 0. 0. 0. 1. 0. 0. 0. 0. 0. 0. 0. 0. 0. 0. 0.
 0. 0. 0. 0. 0. 0. 1. 0. 0. 0. 0. 0. 0. 0. 1. 0. 0. 1. 0. 0. 0. 0. 0. 0.
 0. 0. 0. 0. 0. 1. 0. 1. 1. 1. 1. 1. 1. 0. 0. 1. 1. 0. 1. 0. 1. 1. 0. 0.
 1. 0. 1. 0. 1. 0. 0. 1. 1. 0. 1. 1. 0. 0. 1. 1. 0. 0. 0. 0. 0. 1. 0. 0.
 1. 1. 0. 0. 0. 1. 0. 0. 0. 0. 0. 1. 0. 1. 1. 1. 0. 1. 0. 0. 0. 0. 1. 0.
 1. 1. 0. 0. 0. 0. 1. 1. 0. 1. 1. 1. 1. 0. 1. 0. 1. 1. 1. 1. 1. 1. 0.]

>  <MACCS_pki_G>  (5) 
5.617123

>  <MACCS_pki_D>  (5) 
5.748619

>  <MACCS_pki_B>  (5) 
5.34514

>  <MACCS_pki_A>  (5) 
5.85225

>  <MACCS_SelB>  (5) 
0.271983

>  <MACCS_SelA>  (5) 
-0.235127

>  <MACCS_SelD>  (5) 
-0.131496

>  <MACCSAvgABSel>  (5) 
0.018428

>  <Pharm2D_FP>  (5) 
[0. 0. 0. ... 0. 0. 0.]

>  <Pharm2D_pki_G>  (5) 
5.981803

>  <Pharm2D_pki_D>  (5) 
5.980775

>  <Pharm2D_pki_B>  (5) 
5.443415

>  <Pharm2D_pki_A>  (5) 
5.754766

>  <Pharm2D_SelB>  (5) 
0.538388

>  <Pharm2D_SelA>  (5) 
0.227036

>  <Pharm2D_SelD>  (5) 
0.001028

>  <Pharm2DAvgABSel>  (5) 
0.382712

>  <QED>  (5) 
0.5233

$$$$
DB08993
     RDKit          2D

 48 49  0  0  1  0  0  0  0  0999 V2000
   -1.4289    2.4750    0.0000 C   0  0  0  0  0  0  0  0  0  0  0  0
    0.7144    6.1875    0.0000 C   0  0  0  0  0  0  0  0  0  0  0  0
   -2.1434    2.8875    0.0000 C   0  0  0  0  0  0  0  0  0  0  0  0
    0.0000    6.6000    0.0000 C   0  0  0  0  0  0  0  0  0  0  0  0
    0.7144    2.8875    0.0000 C   0  0  0  0  0  0  0  0  0  0  0  0
    1.4289    3.3000    0.0000 C   0  0  0  0  0  0  0  0  0  0  0  0
    1.4289    7.4250    0.0000 C   0  0  0  0  0  0  0  0  0  0  0  0
    4.2868    6.6000    0.0000 C   0  0  0  0  0  0  0  0  0  0  0  0
    4.2868    4.1250    0.0000 C   0  0  0  0  0  0  0  0  0  0  0  0
    0.0000    2.4750    0.0000 C   0  0  0  0  0  0  0  0  0  0  0  0
    0.7144    5.3625    0.0000 C   0  0  0  0  0  0  0  0  0  0  0  0
    2.1434    3.7125    0.0000 C   0  0  0  0  0  0  0  0  0  0  0  0
    2.1434    7.0125    0.0000 C   0  0  0  0  0  0  0  0  0  0  0  0
    3.5723    6.1875    0.0000 C   0  0  0  0  0  0  0  0  0  0  0  0
    3.5723    4.5375    0.0000 C   0  0  0  0  0  0  0  0  0  0  0  0
   -0.7144    2.8875    0.0000 C   0  0  0  0  0  0  0  0  0  0  0  0
    1.4289    2.4750    0.0000 C   0  0  0  0  0  0  0  0  0  0  0  0
    1.4289    4.9500    0.0000 C   0  0  0  0  0  0  0  0  0  0  0  0
    2.8578    3.3000    0.0000 C   0  0  0  0  0  0  0  0  0  0  0  0
    2.1434    6.1875    0.0000 C   0  0  0  0  0  0  0  0  0  0  0  0
    3.5723    7.0125    0.0000 C   0  0  0  0  0  0  0  0  0  0  0  0
    4.2868    4.9500    0.0000 C   0  0  0  0  0  0  0  0  0  0  0  0
    0.7144    4.5375    0.0000 C   0  0  0  0  0  0  0  0  0  0  0  0
   -0.7144    5.3625    0.0000 C   0  0  0  0  0  0  0  0  0  0  0  0
    2.1434    8.6625    0.0000 C   0  0  0  0  0  0  0  0  0  0  0  0
   -2.8578    2.4750    0.0000 N   0  0  0  0  0  0  0  0  0  0  0  0
    0.0000    1.6500    0.0000 N   0  0  0  0  0  0  0  0  0  0  0  0
   -1.4289    4.9500    0.0000 N   0  0  0  0  0  0  0  0  0  0  0  0
    2.1434    9.4875    0.0000 N   0  0  0  0  0  0  0  0  0  0  0  0
   -0.7144    6.1875    0.0000 N   0  0  0  0  0  0  0  0  0  0  0  0
    0.7144    3.7125    0.0000 N   0  0  0  0  0  0  0  0  0  0  0  0
    1.4289    8.2500    0.0000 N   0  0  0  0  0  0  0  0  0  0  0  0
    2.1434    2.8875    0.0000 N   0  0  0  0  0  0  0  0  0  0  0  0
    2.8578    7.4250    0.0000 N   0  0  0  0  0  0  0  0  0  0  0  0
    3.5723    3.7125    0.0000 N   0  0  0  0  0  0  0  0  0  0  0  0
    4.2868    5.7750    0.0000 N   0  0  0  0  0  0  0  0  0  0  0  0
    0.0000    4.9500    0.0000 N   0  0  0  0  0  0  0  0  0  0  0  0
    1.4289    5.7750    0.0000 N   0  0  0  0  0  0  0  0  0  0  0  0
    5.0012    6.1875    0.0000 O   0  0  0  0  0  0  0  0  0  0  0  0
    4.2868    3.3000    0.0000 O   0  0  0  0  0  0  0  0  0  0  0  0
   -0.7144    3.7125    0.0000 O   0  0  0  0  0  0  0  0  0  0  0  0
    1.4289    1.6500    0.0000 O   0  0  0  0  0  0  0  0  0  0  0  0
    2.8578    2.4750    0.0000 O   0  0  0  0  0  0  0  0  0  0  0  0
    2.8578    5.7750    0.0000 O   0  0  0  0  0  0  0  0  0  0  0  0
    4.2868    7.4250    0.0000 O   0  0  0  0  0  0  0  0  0  0  0  0
    5.0012    4.5375    0.0000 O   0  0  0  0  0  0  0  0  0  0  0  0
   -0.1060    4.4512    0.0000 O   0  0  0  0  0  0  0  0  0  0  0  0
    2.8578    8.2500    0.0000 O   0  0  0  0  0  0  0  0  0  0  0  0
  3  1  1  0
  4  2  1  0
 10  5  1  0
 11  2  1  6
 12  6  1  0
 13  7  2  3
 14  8  1  1
 15  9  1  1
 16  1  1  0
 16 10  1  0
 17  5  1  0
 11 18  1  0
 19 12  1  0
 20 13  1  0
 21 14  1  0
 22 15  1  0
 23 18  1  0
 26  3  1  0
 10 27  1  1
 28 24  2  0
 29 25  2  0
 30  4  1  0
 30 24  1  0
 31  6  1  0
 31 23  2  3
 32  7  1  0
 32 25  1  0
 12 33  1  6
 33 17  2  3
 34 13  1  0
 34 21  2  3
 35 15  1  0
 35 19  2  3
 36 14  1  0
 36 22  2  3
 37 11  1  0
 37 24  1  0
 18 38  1  6
 38 20  2  3
 39  8  1  0
 40  9  1  0
 16 41  1  1
 17 42  1  0
 19 43  1  0
 20 44  1  0
 45 21  1  0
 22 46  1  0
 47 23  1  0
 48 25  1  0
M  END
>  <ALOGPS_LOGP>  (6) 
-1.42

>  <ALOGPS_LOGS>  (6) 
-3.65

>  <ALOGPS_SOLUBILITY>  (6) 
1.55e-01 g/l

>  <DATABASE_NAME>  (6) 
drugbank

>  <DRUGBANK_ID>  (6) 
DB08993

>  <DRUG_GROUPS>  (6) 
experimental

>  <EXACT_MASS>  (6) 
685.325584661

>  <FORMULA>  (6) 
C25H43N13O10

>  <GENERIC_NAME>  (6) 
Enviomycin

>  <ID>  (6) 


>  <INCHI_IDENTIFIER>  (6) 
InChI=1S/C25H43N13O10/c26-3-1-16(41)10(27)5-17(42)33-12-6-31-23(47)18(11-2-4-30-24(28)37-11)38-20(44)13(7-32-25(29)48)34-21(45)14(8-39)36-22(46)15(9-40)35-19(12)43/h7,10-12,14-16,18,39-41H,1-6,8-9,26-27H2,(H,31,47)(H,33,42)(H,34,45)(H,35,43)(H,36,46)(H,38,44)(H3,28,30,37)(H3,29,32,48)/b13-7-/t10-,11-,12+,14+,15+,16-,18+/m1/s1

>  <INCHI_KEY>  (6) 
HPWIIERXAFODPP-GHBBWTPBSA-N

>  <INTERNATIONAL_BRANDS>  (6) 
Tuberactin

>  <JCHEM_ACCEPTOR_COUNT>  (6) 
23

>  <JCHEM_ATOM_COUNT>  (6) 
91

>  <JCHEM_AVERAGE_POLARIZABILITY>  (6) 
65.21043111931252

>  <JCHEM_BIOAVAILABILITY>  (6) 
0

>  <JCHEM_DONOR_COUNT>  (6) 
17

>  <JCHEM_FORMAL_CHARGE>  (6) 
0

>  <JCHEM_GHOSE_FILTER>  (6) 
0

>  <JCHEM_IUPAC>  (6) 
(3R,4R)-3,6-diamino-4-hydroxy-N-[(3S,6Z,9S,12S,15S)-2,5,8,11,14-pentahydroxy-6-{[(C-hydroxycarbonimidoyl)amino]methylidene}-9,12-bis(hydroxymethyl)-3-[(4R)-2-imino-1,3-diazinan-4-yl]-1,4,7,10,13-pentaazacyclohexadeca-1,4,7,10,13-pentaen-15-yl]hexanimidic acid

>  <JCHEM_LOGP>  (6) 
-9.580840802239267

>  <JCHEM_MDDR_LIKE_RULE>  (6) 
0

>  <JCHEM_NUMBER_OF_RINGS>  (6) 
2

>  <JCHEM_PHYSIOLOGICAL_CHARGE>  (6) 
3

>  <JCHEM_PKA>  (6) 
3.0040736920601545

>  <JCHEM_PKA_STRONGEST_ACIDIC>  (6) 
2.502554156358472

>  <JCHEM_PKA_STRONGEST_BASIC>  (6) 
11.737491247178113

>  <JCHEM_POLAR_SURFACE_AREA>  (6) 
412.29000000000013

>  <JCHEM_REFRACTIVITY>  (6) 
186.22490000000008

>  <JCHEM_ROTATABLE_BOND_COUNT>  (6) 
10

>  <JCHEM_RULE_OF_FIVE>  (6) 
0

>  <JCHEM_TRADITIONAL_IUPAC>  (6) 
(3R,4R)-3,6-diamino-4-hydroxy-N-[(3S,6Z,9S,12S,15S)-2,5,8,11,14-pentahydroxy-6-[(C-hydroxycarbonimidoylamino)methylidene]-9,12-bis(hydroxymethyl)-3-[(4R)-2-imino-1,3-diazinan-4-yl]-1,4,7,10,13-pentaazacyclohexadeca-1,4,7,10,13-pentaen-15-yl]hexanimidic acid

>  <JCHEM_VEBER_RULE>  (6) 
0

>  <MOLECULAR_WEIGHT>  (6) 
685.69

>  <PRODUCTS>  (6) 
nan

>  <SALTS>  (6) 
Enviomycin Sulfate

>  <SECONDARY_ACCESSION_NUMBERS>  (6) 
nan

>  <SMILES>  (6) 
[H]\C(NC(O)=N)=C1\N=C(O)[C@]([H])(CO)N=C(O)[C@]([H])(CO)N=C(O)[C@]([H])(CN=C(O)[C@@]([H])(N=C1O)[C@@]1([H])CCNC(=N)N1)N=C(O)C[C@@]([H])(N)[C@]([H])(O)CCN

>  <SYNONYMS>  (6) 
Enviomicina; Enviomycin; Enviomycine; Enviomycinum; Tuberactinomycin N

>  <ECFP_FP>  (6) 
<rdkit.DataStructs.cDataStructs.ExplicitBitVect object at 0xa26b6db70>

>  <pki_G>  (6) 
6.247446

>  <pki_D>  (6) 
5.899321

>  <pki_B>  (6) 
5.576289

>  <pki_A>  (6) 
5.442594

>  <SelB>  (6) 
0.671157

>  <SelA>  (6) 
0.804852

>  <SelD>  (6) 
0.348125

>  <AvgABSel>  (6) 
0.738005

>  <MACCS_FP>  (6) 
[0. 0. 0. 0. 0. 0. 0. 0. 0. 0. 0. 0. 0. 0. 0. 0. 0. 0. 0. 0. 0. 0. 0. 0.
 0. 1. 0. 0. 0. 0. 0. 0. 0. 0. 0. 0. 0. 1. 0. 0. 0. 0. 0. 1. 0. 1. 0. 0.
 0. 0. 0. 0. 0. 1. 1. 0. 0. 0. 0. 0. 0. 0. 1. 0. 0. 0. 0. 0. 0. 0. 0. 0.
 0. 0. 0. 0. 1. 1. 1. 1. 1. 0. 1. 0. 1. 0. 0. 0. 0. 1. 1. 1. 1. 0. 0. 1.
 0. 1. 1. 1. 1. 0. 0. 0. 1. 0. 1. 0. 0. 1. 1. 1. 0. 0. 0. 0. 0. 1. 1. 1.
 1. 1. 0. 0. 0. 0. 0. 1. 1. 1. 0. 1. 1. 1. 0. 0. 0. 1. 1. 1. 1. 0. 1. 1.
 0. 0. 1. 1. 0. 0. 1. 1. 1. 1. 0. 1. 1. 1. 1. 1. 0. 1. 0. 1. 1. 1. 0.]

>  <MACCS_pki_G>  (6) 
6.618311

>  <MACCS_pki_D>  (6) 
6.037781

>  <MACCS_pki_B>  (6) 
6.091583

>  <MACCS_pki_A>  (6) 
5.806143

>  <MACCS_SelB>  (6) 
0.526727

>  <MACCS_SelA>  (6) 
0.812167

>  <MACCS_SelD>  (6) 
0.58053

>  <MACCSAvgABSel>  (6) 
0.669447

>  <Pharm2D_FP>  (6) 
[0. 0. 0. ... 0. 0. 0.]

>  <Pharm2D_pki_G>  (6) 
6.719794

>  <Pharm2D_pki_D>  (6) 
6.743247

>  <Pharm2D_pki_B>  (6) 
6.194523

>  <Pharm2D_pki_A>  (6) 
5.362357

>  <Pharm2D_SelB>  (6) 
0.525271

>  <Pharm2D_SelA>  (6) 
1.357437

>  <Pharm2D_SelD>  (6) 
-0.023453

>  <Pharm2DAvgABSel>  (6) 
0.941354

>  <QED>  (6) 
0.078092

$$$$
DB07216
     RDKit          2D

 32 36  0  0  0  0  0  0  0  0999 V2000
    2.3772    0.2788    0.0000 C   0  0  0  0  0  0  0  0  0  0  0  0
    1.5888    0.5220    0.0000 N   0  0  0  0  0  0  0  0  0  0  0  0
    0.9841   -0.0391    0.0000 C   0  0  0  0  0  0  0  0  0  0  0  0
    1.1676   -0.8435    0.0000 C   0  0  0  0  0  0  0  0  0  0  0  0
    1.9560   -1.0866    0.0000 C   0  0  0  0  0  0  0  0  0  0  0  0
    2.5608   -0.5255    0.0000 C   0  0  0  0  0  0  0  0  0  0  0  0
    0.2408    0.3188    0.0000 C   0  0  0  0  0  0  0  0  0  0  0  0
   -0.5025   -0.0391    0.0000 C   0  0  0  0  0  0  0  0  0  0  0  0
   -0.6861   -0.8435    0.0000 C   0  0  0  0  0  0  0  0  0  0  0  0
   -0.1717   -1.4885    0.0000 C   0  0  0  0  0  0  0  0  0  0  0  0
    0.6533   -1.4885    0.0000 C   0  0  0  0  0  0  0  0  0  0  0  0
   -1.1073    0.5220    0.0000 C   0  0  0  0  0  0  0  0  0  0  0  0
   -1.8956    0.2788    0.0000 C   0  0  0  0  0  0  0  0  0  0  0  0
   -2.0792   -0.5255    0.0000 C   0  0  0  0  0  0  0  0  0  0  0  0
   -1.4745   -1.0866    0.0000 C   0  0  0  0  0  0  0  0  0  0  0  0
    0.2408    1.1438    0.0000 C   0  0  0  0  0  0  0  0  0  0  0  0
   -0.4737    1.5563    0.0000 C   0  0  0  0  0  0  0  0  0  0  0  0
   -0.4737    2.3813    0.0000 C   0  0  0  0  0  0  0  0  0  0  0  0
    0.2408    2.7938    0.0000 N   0  0  0  0  0  0  0  0  0  0  0  0
    0.9552    2.3813    0.0000 C   0  0  0  0  0  0  0  0  0  0  0  0
    0.9552    1.5563    0.0000 C   0  0  0  0  0  0  0  0  0  0  0  0
   -2.8676   -0.7687    0.0000 Cl  0  0  0  0  0  0  0  0  0  0  0  0
    0.2408    3.6188    0.0000 S   0  0  0  0  0  0  0  0  0  0  0  0
   -0.5297   -2.2318    0.0000 N   0  0  0  0  0  0  0  0  0  0  0  0
   -0.0649   -2.9134    0.0000 C   0  0  0  0  0  0  0  0  0  0  0  0
   -1.3524   -2.2934    0.0000 C   0  0  0  0  0  0  0  0  0  0  0  0
   -0.4229   -3.6567    0.0000 C   0  0  0  0  0  0  0  0  0  0  0  0
   -1.7103   -3.0367    0.0000 C   0  0  0  0  0  0  0  0  0  0  0  0
   -1.2456   -3.7184    0.0000 N   0  0  0  0  0  0  0  0  0  0  0  0
    0.2408    4.4438    0.0000 O   0  0  0  0  0  0  0  0  0  0  0  0
    1.0658    3.6188    0.0000 C   0  0  0  0  0  0  0  0  0  0  0  0
   -0.5842    3.6188    0.0000 O   0  0  0  0  0  0  0  0  0  0  0  0
  1  2  2  0
  1  6  1  0
  2  3  1  0
  3  4  2  0
  3  7  1  0
  4  5  1  0
  4 11  1  0
  5  6  2  0
  7  8  1  0
  7 16  1  6
  8  9  2  0
  8 12  1  0
  9 10  1  0
  9 15  1  0
 10 11  2  0
 10 24  1  0
 12 13  2  0
 13 14  1  0
 14 15  2  0
 14 22  1  0
 16 17  1  0
 16 21  1  0
 17 18  1  0
 18 19  1  0
 19 20  1  0
 19 23  1  0
 20 21  1  0
 23 30  2  0
 23 31  1  0
 23 32  2  0
 24 25  1  0
 24 26  1  0
 25 27  1  0
 26 28  1  0
 27 29  1  0
 28 29  1  0
M  END
>  <ALOGPS_LOGP>  (7) 
2.62

>  <ALOGPS_LOGS>  (7) 
-4.00

>  <ALOGPS_SOLUBILITY>  (7) 
4.72e-02 g/l

>  <DATABASE_NAME>  (7) 
drugbank

>  <DRUGBANK_ID>  (7) 
DB07216

>  <DRUG_GROUPS>  (7) 
experimental

>  <EXACT_MASS>  (7) 
472.169974589

>  <FORMULA>  (7) 
C24H29ClN4O2S

>  <GENERIC_NAME>  (7) 
(11S)-8-CHLORO-11-[1-(METHYLSULFONYL)PIPERIDIN-4-YL]-6-PIPERAZIN-1-YL-11H-BENZO[5,6]CYCLOHEPTA[1,2-B]PYRIDINE

>  <ID>  (7) 
736

>  <INCHI_IDENTIFIER>  (7) 
InChI=1S/C24H29ClN4O2S/c1-32(30,31)29-11-6-17(7-12-29)23-20-5-4-19(25)16-21(20)22(28-13-9-26-10-14-28)15-18-3-2-8-27-24(18)23/h2-5,8,15-17,23,26H,6-7,9-14H2,1H3/t23-/m0/s1

>  <INCHI_KEY>  (7) 
ZMGCFGGMTCMSDP-QHCPKHFHSA-N

>  <INTERNATIONAL_BRANDS>  (7) 
nan

>  <JCHEM_ACCEPTOR_COUNT>  (7) 
5

>  <JCHEM_ATOM_COUNT>  (7) 
nan

>  <JCHEM_AVERAGE_POLARIZABILITY>  (7) 
50.156174719090544

>  <JCHEM_BIOAVAILABILITY>  (7) 
1

>  <JCHEM_DONOR_COUNT>  (7) 
1

>  <JCHEM_FORMAL_CHARGE>  (7) 
0

>  <JCHEM_GHOSE_FILTER>  (7) 
1

>  <JCHEM_IUPAC>  (7) 
(2S)-13-chloro-2-(1-methanesulfonylpiperidin-4-yl)-10-(piperazin-1-yl)-4-azatricyclo[9.4.0.0³,⁸]pentadeca-1(11),3(8),4,6,9,12,14-heptaene

>  <JCHEM_LOGP>  (7) 
1.8205063249999993

>  <JCHEM_MDDR_LIKE_RULE>  (7) 
0

>  <JCHEM_NUMBER_OF_RINGS>  (7) 
5

>  <JCHEM_PHYSIOLOGICAL_CHARGE>  (7) 
1

>  <JCHEM_PKA>  (7) 
nan

>  <JCHEM_PKA_STRONGEST_ACIDIC>  (7) 
nan

>  <JCHEM_PKA_STRONGEST_BASIC>  (7) 
9.231120010151258

>  <JCHEM_POLAR_SURFACE_AREA>  (7) 
65.54

>  <JCHEM_REFRACTIVITY>  (7) 
129.91179999999994

>  <JCHEM_ROTATABLE_BOND_COUNT>  (7) 
2

>  <JCHEM_RULE_OF_FIVE>  (7) 
1

>  <JCHEM_TRADITIONAL_IUPAC>  (7) 
(2S)-13-chloro-2-(1-methanesulfonylpiperidin-4-yl)-10-(piperazin-1-yl)-4-azatricyclo[9.4.0.0³,⁸]pentadeca-1(11),3(8),4,6,9,12,14-heptaene

>  <JCHEM_VEBER_RULE>  (7) 
0

>  <MOLECULAR_WEIGHT>  (7) 
473.031

>  <PRODUCTS>  (7) 
nan

>  <SALTS>  (7) 
nan

>  <SECONDARY_ACCESSION_NUMBERS>  (7) 
nan

>  <SMILES>  (7) 
[H][C@]1(C2CCN(CC2)S(C)(=O)=O)C2=C(C=C(Cl)C=C2)C(=CC2=C1N=CC=C2)N1CCNCC1

>  <SYNONYMS>  (7) 
nan

>  <ECFP_FP>  (7) 
<rdkit.DataStructs.cDataStructs.ExplicitBitVect object at 0xa26a63530>

>  <pki_G>  (7) 
6.240646

>  <pki_D>  (7) 
5.613493

>  <pki_B>  (7) 
5.498126

>  <pki_A>  (7) 
5.176743

>  <SelB>  (7) 
0.74252

>  <SelA>  (7) 
1.063903

>  <SelD>  (7) 
0.627154

>  <AvgABSel>  (7) 
0.903212

>  <MACCS_FP>  (7) 
[0. 0. 0. 0. 0. 0. 0. 0. 0. 0. 0. 0. 0. 0. 0. 0. 0. 0. 0. 1. 0. 0. 0. 0.
 0. 0. 0. 0. 0. 0. 0. 0. 1. 1. 0. 0. 0. 0. 0. 0. 0. 0. 0. 0. 0. 1. 0. 0.
 0. 0. 0. 1. 0. 0. 0. 1. 0. 0. 1. 0. 1. 1. 1. 0. 1. 1. 0. 1. 0. 0. 0. 0.
 0. 1. 0. 1. 1. 0. 0. 1. 0. 1. 1. 0. 0. 1. 1. 1. 1. 0. 0. 1. 0. 1. 1. 0.
 0. 0. 1. 1. 1. 1. 1. 1. 1. 1. 1. 1. 1. 0. 0. 1. 1. 0. 0. 0. 1. 1. 1. 0.
 1. 1. 1. 0. 1. 1. 0. 0. 1. 1. 1. 0. 0. 1. 1. 0. 1. 1. 1. 0. 0. 0. 1. 0.
 1. 1. 0. 1. 1. 0. 0. 1. 0. 1. 0. 0. 1. 0. 1. 1. 1. 1. 1. 1. 1. 1. 0.]

>  <MACCS_pki_G>  (7) 
6.135361

>  <MACCS_pki_D>  (7) 
6.349025

>  <MACCS_pki_B>  (7) 
5.885301

>  <MACCS_pki_A>  (7) 
5.555357

>  <MACCS_SelB>  (7) 
0.25006

>  <MACCS_SelA>  (7) 
0.580004

>  <MACCS_SelD>  (7) 
-0.213664

>  <MACCSAvgABSel>  (7) 
0.415032

>  <Pharm2D_FP>  (7) 
[0. 0. 0. ... 0. 0. 0.]

>  <Pharm2D_pki_G>  (7) 
5.871358

>  <Pharm2D_pki_D>  (7) 
5.945926

>  <Pharm2D_pki_B>  (7) 
5.379592

>  <Pharm2D_pki_A>  (7) 
5.794383

>  <Pharm2D_SelB>  (7) 
0.491766

>  <Pharm2D_SelA>  (7) 
0.076975

>  <Pharm2D_SelD>  (7) 
-0.074567

>  <Pharm2DAvgABSel>  (7) 
0.28437

>  <QED>  (7) 
0.742371

$$$$
DB07686
     RDKit          2D

 27 30  0  0  0  0  0  0  0  0999 V2000
   -4.5470   -2.8228    0.0000 O   0  0  0  0  0  0  0  0  0  0  0  0
   -3.8326   -2.4103    0.0000 S   0  0  0  0  0  0  0  0  0  0  0  0
   -3.4201   -3.1247    0.0000 O   0  0  0  0  0  0  0  0  0  0  0  0
   -4.2451   -1.6958    0.0000 N   0  0  0  0  0  0  0  0  0  0  0  0
   -3.1181   -1.9978    0.0000 C   0  0  0  0  0  0  0  0  0  0  0  0
   -3.1181   -1.1728    0.0000 C   0  0  0  0  0  0  0  0  0  0  0  0
   -2.4036   -0.7603    0.0000 C   0  0  0  0  0  0  0  0  0  0  0  0
   -1.6892   -1.1728    0.0000 C   0  0  0  0  0  0  0  0  0  0  0  0
   -1.6892   -1.9978    0.0000 C   0  0  0  0  0  0  0  0  0  0  0  0
   -2.4036   -2.4103    0.0000 C   0  0  0  0  0  0  0  0  0  0  0  0
   -0.9747   -0.7603    0.0000 N   0  0  0  0  0  0  0  0  0  0  0  0
   -0.9747    0.0647    0.0000 C   0  0  0  0  0  0  0  0  0  0  0  0
   -1.6892    0.4772    0.0000 N   0  0  0  0  0  0  0  0  0  0  0  0
   -2.4738    0.2223    0.0000 N   0  0  0  0  0  0  0  0  0  0  0  0
   -2.9587    0.8897    0.0000 C   0  0  0  0  0  0  0  0  0  0  0  0
   -1.6892    1.3022    0.0000 C   0  0  0  0  0  0  0  0  0  0  0  0
   -2.4738    1.5572    0.0000 N   0  0  0  0  0  0  0  0  0  0  0  0
   -0.9747    1.7147    0.0000 N   0  0  0  0  0  0  0  0  0  0  0  0
   -0.2602    1.3022    0.0000 C   0  0  0  0  0  0  0  0  0  0  0  0
   -0.2602    0.4772    0.0000 C   0  0  0  0  0  0  0  0  0  0  0  0
    0.4543    1.7147    0.0000 N   0  0  0  0  0  0  0  0  0  0  0  0
    1.1687    1.3022    0.0000 C   0  0  0  0  0  0  0  0  0  0  0  0
    1.8832    1.7147    0.0000 C   0  0  0  0  0  0  0  0  0  0  0  0
    2.5977    1.3022    0.0000 C   0  0  0  0  0  0  0  0  0  0  0  0
    2.5977    0.4772    0.0000 C   0  0  0  0  0  0  0  0  0  0  0  0
    1.8832    0.0647    0.0000 C   0  0  0  0  0  0  0  0  0  0  0  0
    1.1687    0.4772    0.0000 C   0  0  0  0  0  0  0  0  0  0  0  0
  1  2  2  0
  2  3  2  0
  2  4  1  0
  2  5  1  0
  5  6  2  0
  5 10  1  0
  6  7  1  0
  7  8  2  0
  8  9  1  0
  8 11  1  0
  9 10  2  0
 11 12  1  0
 12 13  1  0
 12 20  2  0
 13 14  1  0
 13 16  1  0
 14 15  2  0
 15 17  1  0
 16 17  2  0
 16 18  1  0
 18 19  2  0
 19 20  1  0
 19 21  1  0
 21 22  1  0
 22 23  1  0
 22 27  1  0
 23 24  1  0
 24 25  1  0
 25 26  1  0
 26 27  1  0
M  END
>  <ALOGPS_LOGP>  (8) 
2.9

>  <ALOGPS_LOGS>  (8) 
-4.21

>  <ALOGPS_SOLUBILITY>  (8) 
2.40e-02 g/l

>  <DATABASE_NAME>  (8) 
drugbank

>  <DRUGBANK_ID>  (8) 
DB07686

>  <DRUG_GROUPS>  (8) 
experimental

>  <EXACT_MASS>  (8) 
387.147743641

>  <FORMULA>  (8) 
C17H21N7O2S

>  <GENERIC_NAME>  (8) 
4-{[5-(CYCLOHEXYLAMINO)[1,2,4]TRIAZOLO[1,5-A]PYRIMIDIN-7-YL]AMINO}BENZENESULFONAMIDE

>  <ID>  (8) 
DT2

>  <INCHI_IDENTIFIER>  (8) 
InChI=1S/C17H21N7O2S/c18-27(25,26)14-8-6-13(7-9-14)22-16-10-15(21-12-4-2-1-3-5-12)23-17-19-11-20-24(16)17/h6-12,22H,1-5H2,(H2,18,25,26)(H,19,20,21,23)

>  <INCHI_KEY>  (8) 
VPOGRVWIIVMWRI-UHFFFAOYSA-N

>  <INTERNATIONAL_BRANDS>  (8) 
nan

>  <JCHEM_ACCEPTOR_COUNT>  (8) 
7

>  <JCHEM_ATOM_COUNT>  (8) 
nan

>  <JCHEM_AVERAGE_POLARIZABILITY>  (8) 
40.58025833387987

>  <JCHEM_BIOAVAILABILITY>  (8) 
1

>  <JCHEM_DONOR_COUNT>  (8) 
3

>  <JCHEM_FORMAL_CHARGE>  (8) 
0

>  <JCHEM_GHOSE_FILTER>  (8) 
1

>  <JCHEM_IUPAC>  (8) 
4-{[5-(cyclohexylamino)-[1,2,4]triazolo[1,5-a]pyrimidin-7-yl]amino}benzene-1-sulfonamide

>  <JCHEM_LOGP>  (8) 
2.214306335

>  <JCHEM_MDDR_LIKE_RULE>  (8) 
0

>  <JCHEM_NUMBER_OF_RINGS>  (8) 
4

>  <JCHEM_PHYSIOLOGICAL_CHARGE>  (8) 
0

>  <JCHEM_PKA>  (8) 
17.568724745096063

>  <JCHEM_PKA_STRONGEST_ACIDIC>  (8) 
10.758924901916828

>  <JCHEM_PKA_STRONGEST_BASIC>  (8) 
1.5206927248918254

>  <JCHEM_POLAR_SURFACE_AREA>  (8) 
127.3

>  <JCHEM_REFRACTIVITY>  (8) 
115.0238

>  <JCHEM_ROTATABLE_BOND_COUNT>  (8) 
5

>  <JCHEM_RULE_OF_FIVE>  (8) 
1

>  <JCHEM_TRADITIONAL_IUPAC>  (8) 
4-{[5-(cyclohexylamino)-[1,2,4]triazolo[1,5-a]pyrimidin-7-yl]amino}benzenesulfonamide

>  <JCHEM_VEBER_RULE>  (8) 
0

>  <MOLECULAR_WEIGHT>  (8) 
387.459

>  <PRODUCTS>  (8) 
nan

>  <SALTS>  (8) 
nan

>  <SECONDARY_ACCESSION_NUMBERS>  (8) 
nan

>  <SMILES>  (8) 
NS(=O)(=O)C1=CC=C(NC2=CC(NC3CCCCC3)=NC3=NC=NN23)C=C1

>  <SYNONYMS>  (8) 
nan

>  <ECFP_FP>  (8) 
<rdkit.DataStructs.cDataStructs.ExplicitBitVect object at 0xa26aae760>

>  <pki_G>  (8) 
6.237162

>  <pki_D>  (8) 
5.644707

>  <pki_B>  (8) 
5.458612

>  <pki_A>  (8) 
5.33285

>  <SelB>  (8) 
0.77855

>  <SelA>  (8) 
0.904312

>  <SelD>  (8) 
0.592455

>  <AvgABSel>  (8) 
0.841431

>  <MACCS_FP>  (8) 
[0. 0. 0. 0. 0. 0. 0. 0. 0. 0. 0. 0. 0. 0. 0. 0. 0. 0. 0. 0. 0. 0. 0. 0.
 0. 1. 0. 0. 0. 0. 0. 0. 1. 1. 0. 0. 0. 0. 1. 0. 0. 0. 0. 0. 0. 0. 0. 0.
 0. 0. 0. 1. 1. 1. 0. 1. 0. 0. 1. 1. 1. 1. 0. 0. 1. 1. 0. 1. 0. 1. 0. 0.
 0. 1. 0. 0. 0. 1. 0. 1. 1. 1. 0. 1. 1. 0. 0. 0. 1. 0. 1. 1. 0. 0. 1. 0.
 1. 0. 1. 0. 0. 1. 1. 0. 1. 1. 1. 0. 0. 0. 0. 1. 1. 0. 0. 0. 0. 1. 1. 0.
 1. 1. 1. 0. 1. 1. 0. 0. 1. 1. 1. 1. 0. 1. 0. 1. 1. 1. 0. 0. 0. 0. 1. 0.
 0. 1. 0. 1. 1. 0. 0. 1. 0. 0. 0. 0. 1. 0. 1. 1. 0. 1. 1. 1. 1. 1. 0.]

>  <MACCS_pki_G>  (8) 
6.476266

>  <MACCS_pki_D>  (8) 
6.806906

>  <MACCS_pki_B>  (8) 
5.896444

>  <MACCS_pki_A>  (8) 
5.646

>  <MACCS_SelB>  (8) 
0.579822

>  <MACCS_SelA>  (8) 
0.830266

>  <MACCS_SelD>  (8) 
-0.33064

>  <MACCSAvgABSel>  (8) 
0.705044

>  <Pharm2D_FP>  (8) 
[0. 0. 0. ... 0. 0. 0.]

>  <Pharm2D_pki_G>  (8) 
6.016031

>  <Pharm2D_pki_D>  (8) 
5.842441

>  <Pharm2D_pki_B>  (8) 
5.680538

>  <Pharm2D_pki_A>  (8) 
5.463636

>  <Pharm2D_SelB>  (8) 
0.335494

>  <Pharm2D_SelA>  (8) 
0.552395

>  <Pharm2D_SelD>  (8) 
0.17359

>  <Pharm2DAvgABSel>  (8) 
0.443944

>  <QED>  (8) 
0.612506

$$$$
DB07687
     RDKit          2D

 28 31  0  0  0  0  0  0  0  0999 V2000
   -3.3565   -2.6510    0.0000 O   0  0  0  0  0  0  0  0  0  0  0  0
   -2.6420   -2.2385    0.0000 S   0  0  0  0  0  0  0  0  0  0  0  0
   -2.2295   -2.9530    0.0000 O   0  0  0  0  0  0  0  0  0  0  0  0
   -3.0545   -1.5241    0.0000 N   0  0  0  0  0  0  0  0  0  0  0  0
   -1.9275   -1.8260    0.0000 C   0  0  0  0  0  0  0  0  0  0  0  0
   -1.9275   -1.0010    0.0000 C   0  0  0  0  0  0  0  0  0  0  0  0
   -1.2131   -0.5885    0.0000 C   0  0  0  0  0  0  0  0  0  0  0  0
   -0.4986   -1.0010    0.0000 C   0  0  0  0  0  0  0  0  0  0  0  0
   -0.4986   -1.8260    0.0000 C   0  0  0  0  0  0  0  0  0  0  0  0
   -1.2131   -2.2385    0.0000 C   0  0  0  0  0  0  0  0  0  0  0  0
    0.2159   -0.5885    0.0000 N   0  0  0  0  0  0  0  0  0  0  0  0
    0.2159    0.2365    0.0000 C   0  0  0  0  0  0  0  0  0  0  0  0
   -0.4986    0.6490    0.0000 N   0  0  0  0  0  0  0  0  0  0  0  0
   -1.2832    0.3940    0.0000 N   0  0  0  0  0  0  0  0  0  0  0  0
   -1.7681    1.0615    0.0000 C   0  0  0  0  0  0  0  0  0  0  0  0
   -0.4986    1.4740    0.0000 C   0  0  0  0  0  0  0  0  0  0  0  0
   -1.2832    1.7289    0.0000 N   0  0  0  0  0  0  0  0  0  0  0  0
    0.2159    1.8865    0.0000 N   0  0  0  0  0  0  0  0  0  0  0  0
    0.9304    1.4740    0.0000 C   0  0  0  0  0  0  0  0  0  0  0  0
    0.9304    0.6490    0.0000 C   0  0  0  0  0  0  0  0  0  0  0  0
    1.6448    1.8865    0.0000 N   0  0  0  0  0  0  0  0  0  0  0  0
    2.3593    1.4740    0.0000 C   0  0  0  0  0  0  0  0  0  0  0  0
    3.0738    1.8865    0.0000 C   0  0  0  0  0  0  0  0  0  0  0  0
    3.7882    1.4740    0.0000 C   0  0  0  0  0  0  0  0  0  0  0  0
    3.7882    0.6490    0.0000 C   0  0  0  0  0  0  0  0  0  0  0  0
    4.5027    0.2365    0.0000 N   0  0  0  0  0  0  0  0  0  0  0  0
    3.0738    0.2365    0.0000 C   0  0  0  0  0  0  0  0  0  0  0  0
    2.3593    0.6490    0.0000 C   0  0  0  0  0  0  0  0  0  0  0  0
  1  2  2  0
  2  3  2  0
  2  4  1  0
  2  5  1  0
  5  6  2  0
  5 10  1  0
  6  7  1  0
  7  8  2  0
  8  9  1  0
  8 11  1  0
  9 10  2  0
 11 12  1  0
 12 13  1  0
 12 20  2  0
 13 14  1  0
 13 16  1  0
 14 15  2  0
 15 17  1  0
 16 17  2  0
 16 18  1  0
 18 19  2  0
 19 20  1  0
 19 21  1  0
 22 21  1  1
 22 23  1  0
 22 28  1  0
 23 24  1  0
 24 25  1  0
 25 26  1  6
 25 27  1  0
 27 28  1  0
M  END
>  <ALOGPS_LOGP>  (9) 
1.58

>  <ALOGPS_LOGS>  (9) 
-3.79

>  <ALOGPS_SOLUBILITY>  (9) 
6.55e-02 g/l

>  <DATABASE_NAME>  (9) 
drugbank

>  <DRUGBANK_ID>  (9) 
DB07687

>  <DRUG_GROUPS>  (9) 
experimental

>  <EXACT_MASS>  (9) 
402.158642678

>  <FORMULA>  (9) 
C17H22N8O2S

>  <GENERIC_NAME>  (9) 
4-({5-[(4-AMINOCYCLOHEXYL)AMINO][1,2,4]TRIAZOLO[1,5-A]PYRIMIDIN-7-YL}AMINO)BENZENESULFONAMIDE

>  <ID>  (9) 
DT4

>  <INCHI_IDENTIFIER>  (9) 
InChI=1S/C17H22N8O2S/c18-11-1-3-12(4-2-11)22-15-9-16(25-17(24-15)20-10-21-25)23-13-5-7-14(8-6-13)28(19,26)27/h5-12,23H,1-4,18H2,(H2,19,26,27)(H,20,21,22,24)/t11-,12-

>  <INCHI_KEY>  (9) 
LVRKQJAEQWVSCM-HAQNSBGRSA-N

>  <INTERNATIONAL_BRANDS>  (9) 
nan

>  <JCHEM_ACCEPTOR_COUNT>  (9) 
8

>  <JCHEM_ATOM_COUNT>  (9) 
nan

>  <JCHEM_AVERAGE_POLARIZABILITY>  (9) 
42.13286849168611

>  <JCHEM_BIOAVAILABILITY>  (9) 
1

>  <JCHEM_DONOR_COUNT>  (9) 
4

>  <JCHEM_FORMAL_CHARGE>  (9) 
0

>  <JCHEM_GHOSE_FILTER>  (9) 
1

>  <JCHEM_IUPAC>  (9) 
4-[(5-{[(1r,4r)-4-aminocyclohexyl]amino}-[1,2,4]triazolo[1,5-a]pyrimidin-7-yl)amino]benzene-1-sulfonamide

>  <JCHEM_LOGP>  (9) 
0.27638967970216666

>  <JCHEM_MDDR_LIKE_RULE>  (9) 
0

>  <JCHEM_NUMBER_OF_RINGS>  (9) 
4

>  <JCHEM_PHYSIOLOGICAL_CHARGE>  (9) 
1

>  <JCHEM_PKA>  (9) 
17.56498169744069

>  <JCHEM_PKA_STRONGEST_ACIDIC>  (9) 
10.932850709700865

>  <JCHEM_PKA_STRONGEST_BASIC>  (9) 
10.277440281782857

>  <JCHEM_POLAR_SURFACE_AREA>  (9) 
153.32

>  <JCHEM_REFRACTIVITY>  (9) 
118.35079999999998

>  <JCHEM_ROTATABLE_BOND_COUNT>  (9) 
5

>  <JCHEM_RULE_OF_FIVE>  (9) 
1

>  <JCHEM_TRADITIONAL_IUPAC>  (9) 
4-[(5-{[(1r,4r)-4-aminocyclohexyl]amino}-[1,2,4]triazolo[1,5-a]pyrimidin-7-yl)amino]benzenesulfonamide

>  <JCHEM_VEBER_RULE>  (9) 
0

>  <MOLECULAR_WEIGHT>  (9) 
402.474

>  <PRODUCTS>  (9) 
nan

>  <SALTS>  (9) 
nan

>  <SECONDARY_ACCESSION_NUMBERS>  (9) 
nan

>  <SMILES>  (9) 
[H][C@]1(N)CC[C@@]([H])(CC1)NC1=NC2=NC=NN2C(NC2=CC=C(C=C2)S(N)(=O)=O)=C1

>  <SYNONYMS>  (9) 
nan

>  <ECFP_FP>  (9) 
<rdkit.DataStructs.cDataStructs.ExplicitBitVect object at 0xa26aae710>

>  <pki_G>  (9) 
6.237162

>  <pki_D>  (9) 
5.644707

>  <pki_B>  (9) 
5.484752

>  <pki_A>  (9) 
5.33285

>  <SelB>  (9) 
0.75241

>  <SelA>  (9) 
0.904312

>  <SelD>  (9) 
0.592455

>  <AvgABSel>  (9) 
0.828361

>  <MACCS_FP>  (9) 
[0. 0. 0. 0. 0. 0. 0. 0. 0. 0. 0. 0. 0. 0. 0. 0. 0. 0. 0. 0. 0. 0. 0. 0.
 0. 1. 0. 0. 0. 0. 0. 0. 1. 1. 0. 0. 0. 0. 1. 0. 0. 0. 0. 0. 0. 0. 0. 0.
 0. 0. 0. 1. 1. 1. 0. 1. 0. 0. 1. 1. 1. 1. 0. 0. 1. 1. 0. 1. 0. 1. 0. 0.
 0. 1. 0. 0. 0. 1. 0. 1. 1. 1. 0. 1. 1. 0. 0. 0. 1. 0. 1. 0. 0. 0. 1. 0.
 1. 0. 1. 0. 0. 1. 1. 0. 1. 1. 1. 0. 0. 0. 0. 1. 1. 0. 0. 0. 0. 1. 1. 0.
 1. 1. 1. 0. 1. 1. 0. 0. 1. 1. 1. 1. 0. 1. 0. 1. 1. 1. 0. 0. 0. 0. 1. 0.
 0. 1. 0. 1. 1. 0. 0. 1. 0. 0. 0. 0. 1. 0. 1. 1. 0. 1. 1. 1. 1. 1. 0.]

>  <MACCS_pki_G>  (9) 
6.476266

>  <MACCS_pki_D>  (9) 
6.806906

>  <MACCS_pki_B>  (9) 
5.993302

>  <MACCS_pki_A>  (9) 
5.646

>  <MACCS_SelB>  (9) 
0.482964

>  <MACCS_SelA>  (9) 
0.830266

>  <MACCS_SelD>  (9) 
-0.33064

>  <MACCSAvgABSel>  (9) 
0.656615

>  <Pharm2D_FP>  (9) 
[0. 0. 0. ... 0. 0. 0.]

>  <Pharm2D_pki_G>  (9) 
6.112138

>  <Pharm2D_pki_D>  (9) 
6.199013

>  <Pharm2D_pki_B>  (9) 
5.861649

>  <Pharm2D_pki_A>  (9) 
5.536605

>  <Pharm2D_SelB>  (9) 
0.250489

>  <Pharm2D_SelA>  (9) 
0.575533

>  <Pharm2D_SelD>  (9) 
-0.086874

>  <Pharm2DAvgABSel>  (9) 
0.413011

>  <QED>  (9) 
0.496305

$$$$
DB13102
     RDKit          2D

 26 29  0  0  1  0  0  0  0  0999 V2000
   -0.5837    0.0165    0.0000 C   0  0  0  0  0  0  0  0  0  0  0  0
   -0.1712   -0.6979    0.0000 C   0  0  0  0  0  0  0  0  0  0  0  0
   -0.5837   -1.4124    0.0000 C   0  0  0  0  0  0  0  0  0  0  0  0
   -0.5837   -2.2374    0.0000 C   0  0  0  0  0  0  0  0  0  0  0  0
   -1.2982   -1.8249    0.0000 C   0  0  0  0  0  0  0  0  0  0  0  0
    0.6538   -0.6979    0.0000 N   0  0  0  0  0  0  0  0  0  0  0  0
    1.1387   -0.0305    0.0000 C   0  0  0  0  0  0  0  0  0  0  0  0
    1.9233   -0.2854    0.0000 C   0  0  0  0  0  0  0  0  0  0  0  0
    2.6378    0.1271    0.0000 C   0  0  0  0  0  0  0  0  0  0  0  0
    3.3523   -0.2854    0.0000 C   0  0  0  0  0  0  0  0  0  0  0  0
    3.3523   -1.1104    0.0000 C   0  0  0  0  0  0  0  0  0  0  0  0
    2.6378   -1.5229    0.0000 C   0  0  0  0  0  0  0  0  0  0  0  0
    1.9233   -1.1104    0.0000 C   0  0  0  0  0  0  0  0  0  0  0  0
    1.1387   -1.3654    0.0000 C   0  0  0  0  0  0  0  0  0  0  0  0
    0.8838   -2.1500    0.0000 O   0  0  0  0  0  0  0  0  0  0  0  0
    2.6378   -2.3479    0.0000 Cl  0  0  0  0  0  0  0  0  0  0  0  0
    4.0668    0.1271    0.0000 C   0  0  0  0  0  0  0  0  0  0  0  0
    4.1530    0.9475    0.0000 C   0  0  0  0  0  0  0  0  0  0  0  0
    4.9600    1.1191    0.0000 C   0  0  0  0  0  0  0  0  0  0  0  0
    5.3725    0.4046    0.0000 N   0  0  0  0  0  0  0  0  0  0  0  0
    4.8204   -0.2085    0.0000 O   0  0  0  0  0  0  0  0  0  0  0  0
    5.2955    1.8727    0.0000 C   0  0  0  0  0  0  0  0  0  0  0  0
    4.8106    2.5402    0.0000 O   0  0  0  0  0  0  0  0  0  0  0  0
    6.1160    1.9590    0.0000 N   0  0  0  0  0  0  0  0  0  0  0  0
    6.4516    2.7127    0.0000 C   0  0  0  0  0  0  0  0  0  0  0  0
    6.6009    1.2915    0.0000 C   0  0  0  0  0  0  0  0  0  0  0  0
  2  1  1  6
  2  3  1  0
  3  4  1  0
  4  5  1  0
  3  5  1  0
  2  6  1  0
  6  7  1  0
  7  8  1  0
  8  9  2  0
  9 10  1  0
 10 11  2  0
 11 12  1  0
 12 13  2  0
  8 13  1  0
 13 14  1  0
  6 14  1  0
 14 15  2  0
 12 16  1  0
 10 17  1  0
 17 18  2  0
 18 19  1  0
 19 20  2  0
 20 21  1  0
 17 21  1  0
 19 22  1  0
 22 23  2  0
 22 24  1  0
 24 25  1  0
 24 26  1  0
M  END
>  <ALOGPS_LOGP>  (10) 
3.33

>  <ALOGPS_LOGS>  (10) 
-3.53

>  <ALOGPS_SOLUBILITY>  (10) 
1.09e-01 g/l

>  <DATABASE_NAME>  (10) 
drugbank

>  <DRUGBANK_ID>  (10) 
DB13102

>  <DRUG_GROUPS>  (10) 
investigational

>  <EXACT_MASS>  (10) 
373.1193192

>  <FORMULA>  (10) 
C19H20ClN3O3

>  <GENERIC_NAME>  (10) 
AZD-8418

>  <ID>  (10) 


>  <INCHI_IDENTIFIER>  (10) 
InChI=1S/C19H20ClN3O3/c1-10(11-4-5-11)23-9-13-6-12(7-14(20)17(13)19(23)25)16-8-15(21-26-16)18(24)22(2)3/h6-8,10-11H,4-5,9H2,1-3H3/t10-/m0/s1

>  <INCHI_KEY>  (10) 
MCPBSUCAISQZQK-JTQLQIEISA-N

>  <INTERNATIONAL_BRANDS>  (10) 
nan

>  <JCHEM_ACCEPTOR_COUNT>  (10) 
3

>  <JCHEM_ATOM_COUNT>  (10) 
46

>  <JCHEM_AVERAGE_POLARIZABILITY>  (10) 
39.96172052395916

>  <JCHEM_BIOAVAILABILITY>  (10) 
1

>  <JCHEM_DONOR_COUNT>  (10) 
0

>  <JCHEM_FORMAL_CHARGE>  (10) 
0

>  <JCHEM_GHOSE_FILTER>  (10) 
1

>  <JCHEM_IUPAC>  (10) 
5-{7-chloro-2-[(1S)-1-cyclopropylethyl]-1-oxo-2,3-dihydro-1H-isoindol-5-yl}-N,N-dimethyl-1,2-oxazole-3-carboxamide

>  <JCHEM_LOGP>  (10) 
2.439277154

>  <JCHEM_MDDR_LIKE_RULE>  (10) 
0

>  <JCHEM_NUMBER_OF_RINGS>  (10) 
4

>  <JCHEM_PHYSIOLOGICAL_CHARGE>  (10) 
0

>  <JCHEM_PKA>  (10) 
nan

>  <JCHEM_PKA_STRONGEST_ACIDIC>  (10) 
13.259744472073567

>  <JCHEM_PKA_STRONGEST_BASIC>  (10) 
-1.4748781279555354

>  <JCHEM_POLAR_SURFACE_AREA>  (10) 
66.65

>  <JCHEM_REFRACTIVITY>  (10) 
99.60549999999998

>  <JCHEM_ROTATABLE_BOND_COUNT>  (10) 
4

>  <JCHEM_RULE_OF_FIVE>  (10) 
1

>  <JCHEM_TRADITIONAL_IUPAC>  (10) 
5-{7-chloro-2-[(1S)-1-cyclopropylethyl]-1-oxo-3H-isoindol-5-yl}-N,N-dimethyl-1,2-oxazole-3-carboxamide

>  <JCHEM_VEBER_RULE>  (10) 
0

>  <MOLECULAR_WEIGHT>  (10) 
373.84

>  <PRODUCTS>  (10) 
nan

>  <SALTS>  (10) 
nan

>  <SECONDARY_ACCESSION_NUMBERS>  (10) 
nan

>  <SMILES>  (10) 
C[C@@H](C1CC1)N1CC2=CC(=CC(Cl)=C2C1=O)C1=CC(=NO1)C(=O)N(C)C

>  <SYNONYMS>  (10) 
nan

>  <ECFP_FP>  (10) 
<rdkit.DataStructs.cDataStructs.ExplicitBitVect object at 0xa26c853a0>

>  <pki_G>  (10) 
6.232276

>  <pki_D>  (10) 
5.540368

>  <pki_B>  (10) 
5.478352

>  <pki_A>  (10) 
4.975644

>  <SelB>  (10) 
0.753924

>  <SelA>  (10) 
1.256631

>  <SelD>  (10) 
0.691907

>  <AvgABSel>  (10) 
1.005278

>  <MACCS_FP>  (10) 
[0. 0. 0. 0. 0. 0. 0. 0. 0. 0. 0. 0. 0. 0. 0. 0. 0. 0. 0. 0. 0. 0. 1. 0.
 0. 0. 0. 0. 0. 0. 0. 0. 0. 0. 0. 0. 0. 0. 0. 0. 0. 0. 0. 0. 0. 0. 0. 0.
 0. 0. 0. 0. 0. 0. 0. 0. 0. 1. 0. 0. 0. 0. 1. 0. 0. 1. 0. 0. 0. 0. 0. 1.
 0. 0. 1. 1. 0. 0. 0. 1. 0. 0. 0. 1. 0. 1. 1. 1. 0. 1. 0. 0. 1. 1. 1. 1.
 1. 1. 0. 0. 1. 1. 1. 1. 0. 1. 0. 1. 0. 0. 1. 0. 0. 0. 0. 0. 1. 1. 0. 0.
 1. 1. 1. 0. 1. 1. 0. 1. 1. 0. 0. 0. 0. 0. 1. 0. 1. 1. 0. 0. 0. 1. 1. 1.
 1. 0. 1. 1. 1. 1. 1. 0. 1. 1. 1. 0. 1. 0. 1. 1. 1. 1. 1. 1. 1. 1. 0.]

>  <MACCS_pki_G>  (10) 
5.964163

>  <MACCS_pki_D>  (10) 
5.93156

>  <MACCS_pki_B>  (10) 
5.459109

>  <MACCS_pki_A>  (10) 
5.356389

>  <MACCS_SelB>  (10) 
0.505054

>  <MACCS_SelA>  (10) 
0.607774

>  <MACCS_SelD>  (10) 
0.032603

>  <MACCSAvgABSel>  (10) 
0.556414

>  <Pharm2D_FP>  (10) 
[0. 0. 0. ... 0. 0. 0.]

>  <Pharm2D_pki_G>  (10) 
5.760673

>  <Pharm2D_pki_D>  (10) 
5.652644

>  <Pharm2D_pki_B>  (10) 
5.236008

>  <Pharm2D_pki_A>  (10) 
5.254124

>  <Pharm2D_SelB>  (10) 
0.524665

>  <Pharm2D_SelA>  (10) 
0.506549

>  <Pharm2D_SelD>  (10) 
0.108029

>  <Pharm2DAvgABSel>  (10) 
0.515607

>  <QED>  (10) 
0.822785

$$$$
DB15382
     RDKit          2D

 38 43  0  0  0  0  0  0  0  0999 V2000
    4.2468   -4.0634    0.0000 F   0  0  0  0  0  0  0  0  0  0  0  0
    3.5323   -3.6509    0.0000 C   0  0  0  0  0  0  0  0  0  0  0  0
    2.8179   -4.0634    0.0000 C   0  0  0  0  0  0  0  0  0  0  0  0
    2.1034   -3.6509    0.0000 C   0  0  0  0  0  0  0  0  0  0  0  0
    2.1034   -2.8259    0.0000 C   0  0  0  0  0  0  0  0  0  0  0  0
    2.8179   -2.4134    0.0000 C   0  0  0  0  0  0  0  0  0  0  0  0
    3.5323   -2.8259    0.0000 C   0  0  0  0  0  0  0  0  0  0  0  0
    1.3889   -2.4134    0.0000 C   0  0  0  0  0  0  0  0  0  0  0  0
    0.6745   -2.8259    0.0000 N   0  0  0  0  0  0  0  0  0  0  0  0
   -0.0400   -2.4134    0.0000 N   0  0  0  0  0  0  0  0  0  0  0  0
   -0.8246   -2.6683    0.0000 C   0  0  0  0  0  0  0  0  0  0  0  0
   -1.0796   -3.4530    0.0000 S   0  0  0  0  0  0  0  0  0  0  0  0
   -0.5275   -4.0660    0.0000 C   0  0  0  0  0  0  0  0  0  0  0  0
    0.2794   -3.8945    0.0000 C   0  0  0  0  0  0  0  0  0  0  0  0
    0.8315   -4.5076    0.0000 C   0  0  0  0  0  0  0  0  0  0  0  0
    0.5765   -5.2922    0.0000 C   0  0  0  0  0  0  0  0  0  0  0  0
    0.9890   -6.0067    0.0000 N   0  0  0  0  0  0  0  0  0  0  0  0
    0.4370   -6.6198    0.0000 C   0  0  0  0  0  0  0  0  0  0  0  0
    0.6085   -7.4268    0.0000 N   0  0  0  0  0  0  0  0  0  0  0  0
   -0.0046   -7.9788    0.0000 C   0  0  0  0  0  0  0  0  0  0  0  0
   -0.7892   -7.7239    0.0000 O   0  0  0  0  0  0  0  0  0  0  0  0
    0.1670   -8.7858    0.0000 N   0  0  0  0  0  0  0  0  0  0  0  0
   -0.4461   -9.3378    0.0000 C   0  0  0  0  0  0  0  0  0  0  0  0
   -0.2746  -10.1448    0.0000 C   0  0  0  0  0  0  0  0  0  0  0  0
   -0.8877  -10.6968    0.0000 N   0  0  0  0  0  0  0  0  0  0  0  0
   -0.7162  -11.5038    0.0000 C   0  0  0  0  0  0  0  0  0  0  0  0
   -1.3293  -12.0558    0.0000 C   0  0  0  0  0  0  0  0  0  0  0  0
   -2.1139  -11.8009    0.0000 O   0  0  0  0  0  0  0  0  0  0  0  0
   -2.2854  -10.9939    0.0000 C   0  0  0  0  0  0  0  0  0  0  0  0
   -1.6723  -10.4419    0.0000 C   0  0  0  0  0  0  0  0  0  0  0  0
   -0.3167   -6.2842    0.0000 S   0  0  0  0  0  0  0  0  0  0  0  0
   -0.2304   -5.4638    0.0000 C   0  0  0  0  0  0  0  0  0  0  0  0
   -0.7825   -4.8507    0.0000 C   0  0  0  0  0  0  0  0  0  0  0  0
   -1.3096   -2.0009    0.0000 N   0  0  0  0  0  0  0  0  0  0  0  0
   -0.8246   -1.3335    0.0000 N   0  0  0  0  0  0  0  0  0  0  0  0
   -0.0400   -1.5884    0.0000 C   0  0  0  0  0  0  0  0  0  0  0  0
    0.6745   -1.1759    0.0000 C   0  0  0  0  0  0  0  0  0  0  0  0
    1.3889   -1.5884    0.0000 C   0  0  0  0  0  0  0  0  0  0  0  0
  1  2  1  0
  2  3  2  0
  3  4  1  0
  4  5  2  0
  5  6  1  0
  6  7  2  0
  2  7  1  0
  5  8  1  0
  8  9  2  0
  9 10  1  0
 10 11  1  0
 11 12  1  0
 12 13  1  0
 13 14  2  0
 14 15  1  0
 15 16  2  0
 16 17  1  0
 17 18  2  0
 18 19  1  0
 19 20  1  0
 20 21  2  0
 20 22  1  0
 22 23  1  0
 23 24  1  0
 24 25  1  0
 25 26  1  0
 26 27  1  0
 27 28  1  0
 28 29  1  0
 29 30  1  0
 25 30  1  0
 18 31  1  0
 31 32  1  0
 16 32  1  0
 32 33  2  0
 13 33  1  0
 11 34  2  0
 34 35  1  0
 35 36  2  0
 10 36  1  0
 36 37  1  0
 37 38  2  0
  8 38  1  0
M  END
>  <ALOGPS_LOGP>  (11) 
3.34

>  <ALOGPS_LOGS>  (11) 
-5.54

>  <ALOGPS_SOLUBILITY>  (11) 
1.57e-03 g/l

>  <DATABASE_NAME>  (11) 
drugbank

>  <DRUGBANK_ID>  (11) 
DB15382

>  <DRUG_GROUPS>  (11) 
investigational

>  <EXACT_MASS>  (11) 
550.136942524

>  <FORMULA>  (11) 
C25H23FN8O2S2

>  <GENERIC_NAME>  (11) 
SAR-125844

>  <ID>  (11) 


>  <INCHI_IDENTIFIER>  (11) 
InChI=1S/C25H23FN8O2S2/c26-17-3-1-16(2-4-17)19-7-8-22-30-31-25(34(22)32-19)37-18-5-6-20-21(15-18)38-24(28-20)29-23(35)27-9-10-33-11-13-36-14-12-33/h1-8,15H,9-14H2,(H2,27,28,29,35)

>  <INCHI_KEY>  (11) 
ODIUNTQOXRXOIV-UHFFFAOYSA-N

>  <INTERNATIONAL_BRANDS>  (11) 
nan

>  <JCHEM_ACCEPTOR_COUNT>  (11) 
7

>  <JCHEM_ATOM_COUNT>  (11) 
61

>  <JCHEM_AVERAGE_POLARIZABILITY>  (11) 
55.093764136177136

>  <JCHEM_BIOAVAILABILITY>  (11) 
1

>  <JCHEM_DONOR_COUNT>  (11) 
2

>  <JCHEM_FORMAL_CHARGE>  (11) 
0

>  <JCHEM_GHOSE_FILTER>  (11) 
0

>  <JCHEM_IUPAC>  (11) 
3-(6-{[6-(4-fluorophenyl)-[1,2,4]triazolo[4,3-b]pyridazin-3-yl]sulfanyl}-1,3-benzothiazol-2-yl)-1-[2-(morpholin-4-yl)ethyl]urea

>  <JCHEM_LOGP>  (11) 
4.38855424416204

>  <JCHEM_MDDR_LIKE_RULE>  (11) 
1

>  <JCHEM_NUMBER_OF_RINGS>  (11) 
6

>  <JCHEM_PHYSIOLOGICAL_CHARGE>  (11) 
0

>  <JCHEM_PKA>  (11) 
nan

>  <JCHEM_PKA_STRONGEST_ACIDIC>  (11) 
7.803625269923495

>  <JCHEM_PKA_STRONGEST_BASIC>  (11) 
6.022746750604206

>  <JCHEM_POLAR_SURFACE_AREA>  (11) 
109.57

>  <JCHEM_REFRACTIVITY>  (11) 
157.20179999999993

>  <JCHEM_ROTATABLE_BOND_COUNT>  (11) 
7

>  <JCHEM_RULE_OF_FIVE>  (11) 
0

>  <JCHEM_TRADITIONAL_IUPAC>  (11) 
(2R)-14-fluoro-2-methyl-6,9,10,19-tetraazapentacyclo[14.2.1.0^{2,6}.0^{8,18}.0^{12,17}]nonadeca-1(18),8,12(17),13,15-pentaen-11-one

>  <JCHEM_VEBER_RULE>  (11) 
0

>  <MOLECULAR_WEIGHT>  (11) 
550.63

>  <PRODUCTS>  (11) 
nan

>  <SALTS>  (11) 
nan

>  <SECONDARY_ACCESSION_NUMBERS>  (11) 
nan

>  <SMILES>  (11) 
FC1=CC=C(C=C1)C1=NN2C(SC3=CC=C4N=C(NC(=O)NCCN5CCOCC5)SC4=C3)=NN=C2C=C1

>  <SYNONYMS>  (11) 
nan

>  <ECFP_FP>  (11) 
<rdkit.DataStructs.cDataStructs.ExplicitBitVect object at 0xa26d69b20>

>  <pki_G>  (11) 
6.221431

>  <pki_D>  (11) 
5.534259

>  <pki_B>  (11) 
5.392207

>  <pki_A>  (11) 
5.470811

>  <SelB>  (11) 
0.829225

>  <SelA>  (11) 
0.750621

>  <SelD>  (11) 
0.687172

>  <AvgABSel>  (11) 
0.789923

>  <MACCS_FP>  (11) 
[0. 0. 0. 0. 0. 0. 0. 0. 0. 0. 0. 0. 0. 0. 0. 0. 0. 0. 0. 0. 0. 0. 0. 0.
 0. 0. 0. 0. 0. 0. 0. 0. 0. 0. 0. 0. 1. 1. 1. 0. 0. 0. 1. 1. 0. 0. 0. 1.
 0. 0. 0. 0. 1. 0. 0. 0. 0. 1. 0. 1. 0. 0. 1. 0. 1. 1. 0. 0. 0. 0. 0. 0.
 0. 0. 0. 1. 0. 1. 0. 1. 1. 1. 1. 1. 0. 1. 1. 1. 1. 0. 1. 1. 0. 0. 1. 1.
 1. 1. 1. 0. 1. 1. 0. 0. 1. 1. 1. 1. 0. 1. 1. 1. 0. 0. 0. 0. 0. 1. 1. 0.
 1. 1. 1. 0. 1. 1. 0. 0. 1. 1. 1. 1. 1. 1. 1. 1. 0. 1. 1. 0. 0. 0. 1. 0.
 0. 1. 0. 1. 1. 0. 0. 1. 0. 1. 1. 1. 1. 1. 1. 1. 0. 1. 1. 1. 1. 1. 0.]

>  <MACCS_pki_G>  (11) 
5.892645

>  <MACCS_pki_D>  (11) 
5.80131

>  <MACCS_pki_B>  (11) 
5.477211

>  <MACCS_pki_A>  (11) 
5.828494

>  <MACCS_SelB>  (11) 
0.415434

>  <MACCS_SelA>  (11) 
0.064151

>  <MACCS_SelD>  (11) 
0.091335

>  <MACCSAvgABSel>  (11) 
0.239792

>  <Pharm2D_FP>  (11) 
[0. 0. 0. ... 0. 0. 0.]

>  <Pharm2D_pki_G>  (11) 
6.081573

>  <Pharm2D_pki_D>  (11) 
5.793199

>  <Pharm2D_pki_B>  (11) 
5.597583

>  <Pharm2D_pki_A>  (11) 
5.97687

>  <Pharm2D_SelB>  (11) 
0.48399

>  <Pharm2D_SelA>  (11) 
0.104703

>  <Pharm2D_SelD>  (11) 
0.288374

>  <Pharm2DAvgABSel>  (11) 
0.294346

>  <QED>  (11) 
0.311225

$$$$
DB07844
     RDKit          2D

 30 33  0  0  0  0  0  0  0  0999 V2000
    5.0241   -1.8077    0.0000 Cl  0  0  0  0  0  0  0  0  0  0  0  0
    4.3096   -1.3952    0.0000 C   0  0  0  0  0  0  0  0  0  0  0  0
    3.5952   -1.8077    0.0000 C   0  0  0  0  0  0  0  0  0  0  0  0
    2.8807   -1.3952    0.0000 C   0  0  0  0  0  0  0  0  0  0  0  0
    2.8807   -0.5702    0.0000 C   0  0  0  0  0  0  0  0  0  0  0  0
    2.0961   -0.3153    0.0000 C   0  0  0  0  0  0  0  0  0  0  0  0
    3.5952   -0.1577    0.0000 C   0  0  0  0  0  0  0  0  0  0  0  0
    4.3096   -0.5702    0.0000 C   0  0  0  0  0  0  0  0  0  0  0  0
    1.6112   -0.9827    0.0000 C   0  0  0  0  0  0  0  0  0  0  0  0
    0.7862   -0.9827    0.0000 S   0  0  0  0  0  0  0  0  0  0  0  0
    0.7862   -0.1577    0.0000 O   0  0  0  0  0  0  0  0  0  0  0  0
    0.7862   -1.8077    0.0000 O   0  0  0  0  0  0  0  0  0  0  0  0
   -0.0388   -0.9827    0.0000 N   0  0  0  0  0  0  0  0  0  0  0  0
   -0.4513   -1.6972    0.0000 C   0  0  0  0  0  0  0  0  0  0  0  0
   -0.1158   -2.4508    0.0000 C   0  0  0  0  0  0  0  0  0  0  0  0
   -0.7289   -3.0029    0.0000 C   0  0  0  0  0  0  0  0  0  0  0  0
   -1.2718   -1.7834    0.0000 C   0  0  0  0  0  0  0  0  0  0  0  0
   -1.8239   -1.1703    0.0000 O   0  0  0  0  0  0  0  0  0  0  0  0
   -1.4433   -2.5904    0.0000 N   0  0  0  0  0  0  0  0  0  0  0  0
   -2.1970   -2.9259    0.0000 C   0  0  0  0  0  0  0  0  0  0  0  0
   -2.8645   -2.4410    0.0000 C   0  0  0  0  0  0  0  0  0  0  0  0
   -2.2833   -3.7464    0.0000 C   0  0  0  0  0  0  0  0  0  0  0  0
   -1.6158   -4.2313    0.0000 O   0  0  0  0  0  0  0  0  0  0  0  0
   -3.0369   -4.0820    0.0000 N   0  0  0  0  0  0  0  0  0  0  0  0
   -3.1232   -4.9025    0.0000 C   0  0  0  0  0  0  0  0  0  0  0  0
   -3.8768   -5.2380    0.0000 C   0  0  0  0  0  0  0  0  0  0  0  0
   -4.5443   -4.7531    0.0000 O   0  0  0  0  0  0  0  0  0  0  0  0
   -4.4580   -3.9326    0.0000 C   0  0  0  0  0  0  0  0  0  0  0  0
   -3.7044   -3.5970    0.0000 C   0  0  0  0  0  0  0  0  0  0  0  0
    2.0961   -1.6501    0.0000 S   0  0  0  0  0  0  0  0  0  0  0  0
  1  2  1  0
  2  3  2  0
  2  8  1  0
  3  4  1  0
  4  5  2  0
  4 30  1  0
  5  6  1  0
  5  7  1  0
  6  9  2  0
  7  8  2  0
  9 10  1  0
  9 30  1  0
 10 11  2  0
 10 12  2  0
 10 13  1  0
 14 13  1  1
 14 15  1  0
 14 17  1  0
 15 16  1  0
 16 19  1  0
 17 18  2  0
 17 19  1  0
 19 20  1  0
 20 21  1  6
 20 22  1  0
 22 23  2  0
 22 24  1  0
 24 25  1  0
 24 29  1  0
 25 26  1  0
 26 27  1  0
 27 28  1  0
 28 29  1  0
M  END
>  <ALOGPS_LOGP>  (12) 
1.03

>  <ALOGPS_LOGS>  (12) 
-4.17

>  <ALOGPS_SOLUBILITY>  (12) 
3.22e-02 g/l

>  <DATABASE_NAME>  (12) 
drugbank

>  <DRUGBANK_ID>  (12) 
DB07844

>  <DRUG_GROUPS>  (12) 
experimental

>  <EXACT_MASS>  (12) 
471.068939916

>  <FORMULA>  (12) 
C19H22ClN3O5S2

>  <GENERIC_NAME>  (12) 
6-CHLORO-N-{(3S)-1-[(1S)-1-METHYL-2-MORPHOLIN-4-YL-2-OXOETHYL]-2-OXOPYRROLIDIN-3-YL}-1-BENZOTHIOPHENE-2-SULFONAMIDE

>  <ID>  (12) 
GS6

>  <INCHI_IDENTIFIER>  (12) 
InChI=1S/C19H22ClN3O5S2/c1-12(18(24)22-6-8-28-9-7-22)23-5-4-15(19(23)25)21-30(26,27)17-10-13-2-3-14(20)11-16(13)29-17/h2-3,10-12,15,21H,4-9H2,1H3/t12-,15-/m0/s1

>  <INCHI_KEY>  (12) 
PHLKBODTBJLXRD-WFASDCNBSA-N

>  <INTERNATIONAL_BRANDS>  (12) 
nan

>  <JCHEM_ACCEPTOR_COUNT>  (12) 
5

>  <JCHEM_ATOM_COUNT>  (12) 
nan

>  <JCHEM_AVERAGE_POLARIZABILITY>  (12) 
46.56067458258236

>  <JCHEM_BIOAVAILABILITY>  (12) 
1

>  <JCHEM_DONOR_COUNT>  (12) 
1

>  <JCHEM_FORMAL_CHARGE>  (12) 
0

>  <JCHEM_GHOSE_FILTER>  (12) 
1

>  <JCHEM_IUPAC>  (12) 
6-chloro-N-[(3S)-1-[(2S)-1-(morpholin-4-yl)-1-oxopropan-2-yl]-2-oxopyrrolidin-3-yl]-1-benzothiophene-2-sulfonamide

>  <JCHEM_LOGP>  (12) 
1.1364586216666674

>  <JCHEM_MDDR_LIKE_RULE>  (12) 
0

>  <JCHEM_NUMBER_OF_RINGS>  (12) 
4

>  <JCHEM_PHYSIOLOGICAL_CHARGE>  (12) 
0

>  <JCHEM_PKA>  (12) 
15.951117756834936

>  <JCHEM_PKA_STRONGEST_ACIDIC>  (12) 
8.607216685630412

>  <JCHEM_PKA_STRONGEST_BASIC>  (12) 
-3.1484518833808512

>  <JCHEM_POLAR_SURFACE_AREA>  (12) 
96.02000000000001

>  <JCHEM_REFRACTIVITY>  (12) 
112.02789999999996

>  <JCHEM_ROTATABLE_BOND_COUNT>  (12) 
4

>  <JCHEM_RULE_OF_FIVE>  (12) 
1

>  <JCHEM_TRADITIONAL_IUPAC>  (12) 
6-chloro-N-[(3S)-1-[(2S)-1-(morpholin-4-yl)-1-oxopropan-2-yl]-2-oxopyrrolidin-3-yl]-1-benzothiophene-2-sulfonamide

>  <JCHEM_VEBER_RULE>  (12) 
0

>  <MOLECULAR_WEIGHT>  (12) 
471.978

>  <PRODUCTS>  (12) 
nan

>  <SALTS>  (12) 
nan

>  <SECONDARY_ACCESSION_NUMBERS>  (12) 
nan

>  <SMILES>  (12) 
[H][C@@](C)(N1CC[C@]([H])(NS(=O)(=O)C2=CC3=C(S2)C=C(Cl)C=C3)C1=O)C(=O)N1CCOCC1

>  <SYNONYMS>  (12) 
nan

>  <ECFP_FP>  (12) 
<rdkit.DataStructs.cDataStructs.ExplicitBitVect object at 0xa26ac77b0>

>  <pki_G>  (12) 
6.214275

>  <pki_D>  (12) 
5.599463

>  <pki_B>  (12) 
5.700411

>  <pki_A>  (12) 
5.367533

>  <SelB>  (12) 
0.513864

>  <SelA>  (12) 
0.846742

>  <SelD>  (12) 
0.614813

>  <AvgABSel>  (12) 
0.680303

>  <MACCS_FP>  (12) 
[0. 0. 0. 0. 0. 0. 0. 0. 0. 0. 0. 0. 0. 0. 0. 0. 0. 0. 0. 0. 0. 0. 0. 0.
 0. 0. 0. 0. 0. 0. 0. 0. 1. 1. 0. 0. 1. 0. 0. 0. 0. 0. 0. 0. 0. 0. 0. 0.
 0. 0. 0. 1. 0. 0. 0. 1. 0. 1. 1. 1. 1. 1. 0. 0. 1. 0. 0. 1. 0. 1. 0. 0.
 0. 1. 0. 1. 0. 0. 0. 1. 1. 1. 0. 1. 0. 1. 1. 1. 1. 0. 1. 1. 1. 0. 1. 1.
 1. 0. 1. 0. 1. 1. 1. 1. 1. 1. 1. 1. 1. 1. 1. 1. 1. 0. 0. 0. 1. 1. 1. 0.
 1. 1. 1. 0. 1. 1. 0. 1. 1. 1. 1. 0. 1. 1. 1. 0. 1. 1. 1. 0. 1. 0. 1. 1.
 0. 1. 1. 1. 1. 0. 1. 1. 0. 1. 1. 0. 1. 1. 1. 1. 1. 1. 1. 1. 1. 1. 0.]

>  <MACCS_pki_G>  (12) 
6.129255

>  <MACCS_pki_D>  (12) 
5.89101

>  <MACCS_pki_B>  (12) 
5.621556

>  <MACCS_pki_A>  (12) 
5.949667

>  <MACCS_SelB>  (12) 
0.507699

>  <MACCS_SelA>  (12) 
0.179588

>  <MACCS_SelD>  (12) 
0.238245

>  <MACCSAvgABSel>  (12) 
0.343644

>  <Pharm2D_FP>  (12) 
[0. 0. 0. ... 0. 0. 0.]

>  <Pharm2D_pki_G>  (12) 
5.690345

>  <Pharm2D_pki_D>  (12) 
5.468179

>  <Pharm2D_pki_B>  (12) 
5.364162

>  <Pharm2D_pki_A>  (12) 
5.442826

>  <Pharm2D_SelB>  (12) 
0.326183

>  <Pharm2D_SelA>  (12) 
0.247519

>  <Pharm2D_SelD>  (12) 
0.222166

>  <Pharm2DAvgABSel>  (12) 
0.286851

>  <QED>  (12) 
0.71535

$$$$
DB13368
     RDKit          2D

 26 26  0  0  0  0  0  0  0  0999 V2000
    3.5724    8.6625    0.0000 C   0  0  0  0  0  0  0  0  0  0  0  0
    2.8579    8.2500    0.0000 C   0  0  0  0  0  0  0  0  0  0  0  0
    2.8579    7.4250    0.0000 N   0  0  0  0  0  0  0  0  0  0  0  0
    2.1434    7.0125    0.0000 C   0  0  0  0  0  0  0  0  0  0  0  0
    1.4289    7.4250    0.0000 O   0  0  0  0  0  0  0  0  0  0  0  0
    2.1434    6.1875    0.0000 C   0  0  0  0  0  0  0  0  0  0  0  0
    1.4289    5.7750    0.0000 C   0  0  0  0  0  0  0  0  0  0  0  0
    0.7145    6.1875    0.0000 C   0  0  0  0  0  0  0  0  0  0  0  0
    1.4289    4.9500    0.0000 C   0  0  0  0  0  0  0  0  0  0  0  0
    0.7145    4.5375    0.0000 C   0  0  0  0  0  0  0  0  0  0  0  0
    0.7145    3.7125    0.0000 C   0  0  0  0  0  0  0  0  0  0  0  0
    0.0000    3.3000    0.0000 C   0  0  0  0  0  0  0  0  0  0  0  0
   -0.7145    3.7125    0.0000 C   0  0  0  0  0  0  0  0  0  0  0  0
    0.0000    2.4750    0.0000 C   0  0  0  0  0  0  0  0  0  0  0  0
    0.7145    2.0625    0.0000 C   0  0  0  0  0  0  0  0  0  0  0  0
    0.7145    1.2375    0.0000 C   0  0  0  0  0  0  0  0  0  0  0  0
    1.4289    0.8250    0.0000 C   0  0  0  0  0  0  0  0  0  0  0  0
    1.4289   -0.0000    0.0000 C   0  0  0  0  0  0  0  0  0  0  0  0
    0.7145   -0.4125    0.0000 C   0  0  0  0  0  0  0  0  0  0  0  0
    0.0000    0.0000    0.0000 C   0  0  0  0  0  0  0  0  0  0  0  0
    0.0000    0.8250    0.0000 C   0  0  0  0  0  0  0  0  0  0  0  0
   -0.7145    1.2375    0.0000 C   0  0  0  0  0  0  0  0  0  0  0  0
   -0.7145   -0.4125    0.0000 C   0  0  0  0  0  0  0  0  0  0  0  0
    0.7145   -1.2375    0.0000 O   0  0  0  0  0  0  0  0  0  0  0  0
    1.4289   -1.6500    0.0000 C   0  0  0  0  0  0  0  0  0  0  0  0
    2.1434    1.2375    0.0000 C   0  0  0  0  0  0  0  0  0  0  0  0
  1  2  1  0
  2  3  1  0
  3  4  1  0
  4  5  2  0
  4  6  1  0
  6  7  2  0
  7  8  1  0
  7  9  1  0
  9 10  2  0
 10 11  1  0
 11 12  2  0
 12 13  1  0
 12 14  1  0
 14 15  2  0
 15 16  1  0
 16 17  2  0
 17 18  1  0
 18 19  2  0
 19 20  1  0
 20 21  2  0
 16 21  1  0
 21 22  1  0
 20 23  1  0
 19 24  1  0
 24 25  1  0
 17 26  1  0
M  END
>  <ALOGPS_LOGP>  (13) 
5.78

>  <ALOGPS_LOGS>  (13) 
-5.66

>  <ALOGPS_SOLUBILITY>  (13) 
7.67e-04 g/l

>  <DATABASE_NAME>  (13) 
drugbank

>  <DRUGBANK_ID>  (13) 
DB13368

>  <DRUG_GROUPS>  (13) 
experimental

>  <EXACT_MASS>  (13) 
353.235479242

>  <FORMULA>  (13) 
C23H31NO2

>  <GENERIC_NAME>  (13) 
Motretinide

>  <ID>  (13) 


>  <INCHI_IDENTIFIER>  (13) 
InChI=1S/C23H31NO2/c1-8-24-23(25)14-17(3)11-9-10-16(2)12-13-21-18(4)15-22(26-7)20(6)19(21)5/h9-15H,8H2,1-7H3,(H,24,25)/b11-9+,13-12+,16-10+,17-14+

>  <INCHI_KEY>  (13) 
IYIYMCASGKQOCZ-DJRRULDNSA-N

>  <INTERNATIONAL_BRANDS>  (13) 
nan

>  <JCHEM_ACCEPTOR_COUNT>  (13) 
2

>  <JCHEM_ATOM_COUNT>  (13) 
57

>  <JCHEM_AVERAGE_POLARIZABILITY>  (13) 
43.67744901900046

>  <JCHEM_BIOAVAILABILITY>  (13) 
1

>  <JCHEM_DONOR_COUNT>  (13) 
1

>  <JCHEM_FORMAL_CHARGE>  (13) 
0

>  <JCHEM_GHOSE_FILTER>  (13) 
1

>  <JCHEM_IUPAC>  (13) 
(2E,4E,6E,8E)-N-ethyl-9-(4-methoxy-2,3,6-trimethylphenyl)-3,7-dimethylnona-2,4,6,8-tetraenamide

>  <JCHEM_LOGP>  (13) 
5.360590132333334

>  <JCHEM_MDDR_LIKE_RULE>  (13) 
0

>  <JCHEM_NUMBER_OF_RINGS>  (13) 
1

>  <JCHEM_PHYSIOLOGICAL_CHARGE>  (13) 
0

>  <JCHEM_PKA>  (13) 
nan

>  <JCHEM_PKA_STRONGEST_ACIDIC>  (13) 
16.32726056085261

>  <JCHEM_PKA_STRONGEST_BASIC>  (13) 
-0.2247022579621457

>  <JCHEM_POLAR_SURFACE_AREA>  (13) 
38.33

>  <JCHEM_REFRACTIVITY>  (13) 
115.63399999999997

>  <JCHEM_ROTATABLE_BOND_COUNT>  (13) 
7

>  <JCHEM_RULE_OF_FIVE>  (13) 
0

>  <JCHEM_TRADITIONAL_IUPAC>  (13) 
motretinide

>  <JCHEM_VEBER_RULE>  (13) 
1

>  <MOLECULAR_WEIGHT>  (13) 
353.506

>  <PRODUCTS>  (13) 
nan

>  <SALTS>  (13) 
nan

>  <SECONDARY_ACCESSION_NUMBERS>  (13) 
nan

>  <SMILES>  (13) 
CCNC(=O)\C=C(/C)\C=C\C=C(/C)\C=C\C1=C(C)C=C(OC)C(C)=C1C

>  <SYNONYMS>  (13) 
nan

>  <ECFP_FP>  (13) 
<rdkit.DataStructs.cDataStructs.ExplicitBitVect object at 0xa26ca3a30>

>  <pki_G>  (13) 
6.203511

>  <pki_D>  (13) 
5.646872

>  <pki_B>  (13) 
5.48178

>  <pki_A>  (13) 
5.687488

>  <SelB>  (13) 
0.721731

>  <SelA>  (13) 
0.516023

>  <SelD>  (13) 
0.556639

>  <AvgABSel>  (13) 
0.618877

>  <MACCS_FP>  (13) 
[0. 0. 0. 0. 0. 0. 0. 0. 0. 0. 0. 0. 0. 0. 0. 0. 0. 0. 0. 0. 0. 0. 0. 0.
 0. 0. 0. 0. 0. 0. 0. 0. 0. 0. 0. 0. 0. 0. 0. 0. 0. 0. 0. 0. 0. 0. 0. 0.
 0. 0. 1. 0. 0. 0. 0. 0. 0. 0. 0. 0. 0. 0. 0. 0. 0. 0. 0. 0. 0. 0. 0. 0.
 0. 0. 0. 0. 1. 0. 0. 0. 0. 0. 1. 0. 0. 0. 0. 0. 0. 0. 0. 0. 1. 1. 0. 0.
 0. 0. 0. 1. 1. 0. 0. 0. 0. 0. 0. 0. 0. 0. 1. 0. 0. 1. 1. 0. 0. 1. 0. 0.
 0. 0. 0. 0. 0. 0. 1. 1. 0. 0. 0. 0. 0. 0. 0. 0. 0. 0. 0. 0. 0. 1. 0. 1.
 1. 0. 0. 0. 0. 1. 1. 1. 1. 1. 1. 1. 1. 1. 1. 1. 1. 1. 1. 1. 1. 1. 0.]

>  <MACCS_pki_G>  (13) 
5.845103

>  <MACCS_pki_D>  (13) 
5.816237

>  <MACCS_pki_B>  (13) 
5.818753

>  <MACCS_pki_A>  (13) 
5.851389

>  <MACCS_SelB>  (13) 
0.026349

>  <MACCS_SelA>  (13) 
-0.006286

>  <MACCS_SelD>  (13) 
0.028866

>  <MACCSAvgABSel>  (13) 
0.010031

>  <Pharm2D_FP>  (13) 
[0. 0. 0. ... 0. 0. 0.]

>  <Pharm2D_pki_G>  (13) 
5.825474

>  <Pharm2D_pki_D>  (13) 
5.579377

>  <Pharm2D_pki_B>  (13) 
5.338176

>  <Pharm2D_pki_A>  (13) 
4.925071

>  <Pharm2D_SelB>  (13) 
0.487298

>  <Pharm2D_SelA>  (13) 
0.900402

>  <Pharm2D_SelD>  (13) 
0.246096

>  <Pharm2DAvgABSel>  (13) 
0.69385

>  <QED>  (13) 
0.539056

$$$$
DB15170
     RDKit          2D

 32 35  0  0  0  0  0  0  0  0999 V2000
    4.2868   -1.6500    0.0000 N   0  0  0  0  0  0  0  0  0  0  0  0
    4.2868   -2.4750    0.0000 C   0  0  0  0  0  0  0  0  0  0  0  0
    5.0013   -2.8875    0.0000 N   0  0  0  0  0  0  0  0  0  0  0  0
    5.0013   -3.7125    0.0000 C   0  0  0  0  0  0  0  0  0  0  0  0
    4.2868   -4.1250    0.0000 N   0  0  0  0  0  0  0  0  0  0  0  0
    3.5724   -3.7125    0.0000 C   0  0  0  0  0  0  0  0  0  0  0  0
    2.8579   -4.1250    0.0000 N   0  0  0  0  0  0  0  0  0  0  0  0
    2.8579   -4.9500    0.0000 C   0  0  0  0  0  0  0  0  0  0  0  0
    3.5724   -5.3625    0.0000 C   0  0  0  0  0  0  0  0  0  0  0  0
    4.2868   -4.9500    0.0000 C   0  0  0  0  0  0  0  0  0  0  0  0
    5.0013   -5.3625    0.0000 C   0  0  0  0  0  0  0  0  0  0  0  0
    5.0013   -6.1875    0.0000 N   0  0  0  0  0  0  0  0  0  0  0  0
    4.2868   -6.6000    0.0000 C   0  0  0  0  0  0  0  0  0  0  0  0
    3.5724   -6.1875    0.0000 C   0  0  0  0  0  0  0  0  0  0  0  0
    5.7158   -6.6000    0.0000 C   0  0  0  0  0  0  0  0  0  0  0  0
    6.4302   -6.1875    0.0000 O   0  0  0  0  0  0  0  0  0  0  0  0
    5.7158   -7.4250    0.0000 C   0  0  0  0  0  0  0  0  0  0  0  0
    6.4302   -7.8375    0.0000 C   0  0  0  0  0  0  0  0  0  0  0  0
    3.5724   -2.8875    0.0000 C   0  0  0  0  0  0  0  0  0  0  0  0
    2.8579   -2.4750    0.0000 C   0  0  0  0  0  0  0  0  0  0  0  0
    2.1434   -2.8875    0.0000 C   0  0  0  0  0  0  0  0  0  0  0  0
    1.4289   -2.4750    0.0000 C   0  0  0  0  0  0  0  0  0  0  0  0
    1.4289   -1.6500    0.0000 C   0  0  0  0  0  0  0  0  0  0  0  0
    0.7145   -1.2375    0.0000 O   0  0  0  0  0  0  0  0  0  0  0  0
    0.7145   -0.4125    0.0000 C   0  0  0  0  0  0  0  0  0  0  0  0
    0.0000    0.0000    0.0000 C   0  0  0  0  0  0  0  0  0  0  0  0
    0.0000    0.8250    0.0000 C   0  0  0  0  0  0  0  0  0  0  0  0
    0.7145    1.2375    0.0000 C   0  0  0  0  0  0  0  0  0  0  0  0
    1.4289    0.8250    0.0000 C   0  0  0  0  0  0  0  0  0  0  0  0
    1.4289    0.0000    0.0000 C   0  0  0  0  0  0  0  0  0  0  0  0
    2.1434   -1.2375    0.0000 C   0  0  0  0  0  0  0  0  0  0  0  0
    2.8579   -1.6500    0.0000 C   0  0  0  0  0  0  0  0  0  0  0  0
  1  2  1  0
  2  3  2  0
  3  4  1  0
  4  5  2  0
  5  6  1  0
  6  7  1  0
  7  8  1  0
  8  9  1  0
  9 10  1  0
 10 11  1  0
 11 12  1  0
 12 13  1  0
 13 14  1  0
  9 14  1  0
 12 15  1  0
 15 16  2  0
 15 17  1  0
 17 18  2  0
  6 19  2  0
  2 19  1  0
 19 20  1  0
 20 21  2  0
 21 22  1  0
 22 23  2  0
 23 24  1  0
 24 25  1  0
 25 26  2  0
 26 27  1  0
 27 28  2  0
 28 29  1  0
 29 30  2  0
 25 30  1  0
 23 31  1  0
 31 32  2  0
 20 32  1  0
M  END
>  <ALOGPS_LOGP>  (14) 
3.94

>  <ALOGPS_LOGS>  (14) 
-4.45

>  <ALOGPS_SOLUBILITY>  (14) 
1.53e-02 g/l

>  <DATABASE_NAME>  (14) 
drugbank

>  <DRUGBANK_ID>  (14) 
DB15170

>  <DRUG_GROUPS>  (14) 
investigational

>  <EXACT_MASS>  (14) 
429.216475129

>  <FORMULA>  (14) 
C25H27N5O2

>  <GENERIC_NAME>  (14) 
Evobrutinib

>  <ID>  (14) 


>  <INCHI_IDENTIFIER>  (14) 
InChI=1S/C25H27N5O2/c1-2-22(31)30-14-12-18(13-15-30)16-27-25-23(24(26)28-17-29-25)19-8-10-21(11-9-19)32-20-6-4-3-5-7-20/h2-11,17-18H,1,12-16H2,(H3,26,27,28,29)

>  <INCHI_KEY>  (14) 
QUIWHXQETADMGN-UHFFFAOYSA-N

>  <INTERNATIONAL_BRANDS>  (14) 
nan

>  <JCHEM_ACCEPTOR_COUNT>  (14) 
5

>  <JCHEM_ATOM_COUNT>  (14) 
59

>  <JCHEM_AVERAGE_POLARIZABILITY>  (14) 
45.678208154557936

>  <JCHEM_BIOAVAILABILITY>  (14) 
1

>  <JCHEM_DONOR_COUNT>  (14) 
2

>  <JCHEM_FORMAL_CHARGE>  (14) 
0

>  <JCHEM_GHOSE_FILTER>  (14) 
1

>  <JCHEM_IUPAC>  (14) 
1-[4-({[6-amino-5-(4-phenoxyphenyl)pyrimidin-4-yl]amino}methyl)piperidin-1-yl]prop-2-en-1-one

>  <JCHEM_LOGP>  (14) 
3.500609454666667

>  <JCHEM_MDDR_LIKE_RULE>  (14) 
1

>  <JCHEM_NUMBER_OF_RINGS>  (14) 
4

>  <JCHEM_PHYSIOLOGICAL_CHARGE>  (14) 
1

>  <JCHEM_PKA>  (14) 
nan

>  <JCHEM_PKA_STRONGEST_ACIDIC>  (14) 
nan

>  <JCHEM_PKA_STRONGEST_BASIC>  (14) 
7.158557850953866

>  <JCHEM_POLAR_SURFACE_AREA>  (14) 
93.36999999999999

>  <JCHEM_REFRACTIVITY>  (14) 
128.8085

>  <JCHEM_ROTATABLE_BOND_COUNT>  (14) 
7

>  <JCHEM_RULE_OF_FIVE>  (14) 
1

>  <JCHEM_TRADITIONAL_IUPAC>  (14) 
(2R)-14-fluoro-2-methyl-6,9,10,19-tetraazapentacyclo[14.2.1.0^{2,6}.0^{8,18}.0^{12,17}]nonadeca-1(18),8,12(17),13,15-pentaen-11-one

>  <JCHEM_VEBER_RULE>  (14) 
0

>  <MOLECULAR_WEIGHT>  (14) 
429.524

>  <PRODUCTS>  (14) 
nan

>  <SALTS>  (14) 
nan

>  <SECONDARY_ACCESSION_NUMBERS>  (14) 
nan

>  <SMILES>  (14) 
NC1=NC=NC(NCC2CCN(CC2)C(=O)C=C)=C1C1=CC=C(OC2=CC=CC=C2)C=C1

>  <SYNONYMS>  (14) 
nan

>  <ECFP_FP>  (14) 
<rdkit.DataStructs.cDataStructs.ExplicitBitVect object at 0xa26d54a80>

>  <pki_G>  (14) 
6.199556

>  <pki_D>  (14) 
5.697698

>  <pki_B>  (14) 
5.639558

>  <pki_A>  (14) 
5.501011

>  <SelB>  (14) 
0.559998

>  <SelA>  (14) 
0.698545

>  <SelD>  (14) 
0.501858

>  <AvgABSel>  (14) 
0.629272

>  <MACCS_FP>  (14) 
[0. 0. 0. 0. 0. 0. 0. 0. 0. 0. 0. 0. 0. 0. 0. 0. 0. 0. 0. 0. 0. 0. 0. 0.
 0. 0. 0. 0. 0. 0. 0. 0. 0. 0. 1. 0. 0. 0. 1. 0. 0. 0. 0. 0. 0. 0. 0. 0.
 0. 0. 0. 0. 0. 1. 0. 0. 0. 0. 0. 0. 0. 0. 1. 0. 0. 1. 0. 0. 0. 0. 0. 0.
 0. 0. 0. 1. 0. 1. 0. 0. 1. 0. 1. 0. 1. 1. 1. 0. 0. 0. 1. 1. 1. 0. 0. 0.
 0. 0. 1. 1. 1. 0. 0. 0. 0. 0. 0. 0. 0. 0. 1. 1. 0. 1. 0. 0. 0. 1. 1. 0.
 1. 1. 1. 0. 0. 1. 1. 1. 1. 1. 0. 1. 0. 1. 0. 1. 0. 1. 1. 0. 0. 0. 1. 1.
 1. 1. 0. 1. 1. 0. 1. 1. 1. 1. 1. 1. 1. 1. 1. 1. 0. 1. 1. 1. 1. 1. 0.]

>  <MACCS_pki_G>  (14) 
5.75445

>  <MACCS_pki_D>  (14) 
5.651202

>  <MACCS_pki_B>  (14) 
5.481133

>  <MACCS_pki_A>  (14) 
5.871925

>  <MACCS_SelB>  (14) 
0.273316

>  <MACCS_SelA>  (14) 
-0.117475

>  <MACCS_SelD>  (14) 
0.103248

>  <MACCSAvgABSel>  (14) 
0.077921

>  <Pharm2D_FP>  (14) 
[0. 0. 0. ... 0. 0. 0.]

>  <Pharm2D_pki_G>  (14) 
6.106956

>  <Pharm2D_pki_D>  (14) 
5.713513

>  <Pharm2D_pki_B>  (14) 
5.314088

>  <Pharm2D_pki_A>  (14) 
5.531835

>  <Pharm2D_SelB>  (14) 
0.792868

>  <Pharm2D_SelA>  (14) 
0.575121

>  <Pharm2D_SelD>  (14) 
0.393443

>  <Pharm2DAvgABSel>  (14) 
0.683995

>  <QED>  (14) 
0.542398

$$$$
DB01118
     RDKit          2D

 31 33  0  0  0  0  0  0  0  0999 V2000
   -2.1050    0.2612    0.0000 C   0  0  0  0  0  0  0  0  0  0  0  0
   -2.9255    0.1750    0.0000 C   0  0  0  0  0  0  0  0  0  0  0  0
   -1.7695   -0.4923    0.0000 C   0  0  0  0  0  0  0  0  0  0  0  0
   -1.6925    0.9757    0.0000 C   0  0  0  0  0  0  0  0  0  0  0  0
   -3.0971   -0.6318    0.0000 C   0  0  0  0  0  0  0  0  0  0  0  0
   -3.5387    0.7269    0.0000 C   0  0  0  0  0  0  0  0  0  0  0  0
   -2.3826   -1.0445    0.0000 O   0  0  0  0  0  0  0  0  0  0  0  0
   -0.9624   -0.6639    0.0000 C   0  0  0  0  0  0  0  0  0  0  0  0
   -0.8675    0.9757    0.0000 C   0  0  0  0  0  0  0  0  0  0  0  0
   -2.1050    1.6902    0.0000 O   0  0  0  0  0  0  0  0  0  0  0  0
   -3.8817   -0.8869    0.0000 C   0  0  0  0  0  0  0  0  0  0  0  0
   -4.3233    0.4722    0.0000 C   0  0  0  0  0  0  0  0  0  0  0  0
   -0.7076   -1.4485    0.0000 C   0  0  0  0  0  0  0  0  0  0  0  0
   -0.4550    1.6902    0.0000 C   0  0  0  0  0  0  0  0  0  0  0  0
   -0.4550    0.2612    0.0000 C   0  0  0  0  0  0  0  0  0  0  0  0
   -4.4948   -0.3347    0.0000 C   0  0  0  0  0  0  0  0  0  0  0  0
    0.0993   -1.6200    0.0000 C   0  0  0  0  0  0  0  0  0  0  0  0
    0.3699    1.6902    0.0000 C   0  0  0  0  0  0  0  0  0  0  0  0
    0.3699    0.2612    0.0000 C   0  0  0  0  0  0  0  0  0  0  0  0
    0.3542   -2.4046    0.0000 C   0  0  0  0  0  0  0  0  0  0  0  0
    0.7824    0.9757    0.0000 C   0  0  0  0  0  0  0  0  0  0  0  0
    0.7824    2.4047    0.0000 I   0  0  0  0  0  0  0  0  0  0  0  0
    0.7824   -0.4532    0.0000 I   0  0  0  0  0  0  0  0  0  0  0  0
    1.6074    0.9757    0.0000 O   0  0  0  0  0  0  0  0  0  0  0  0
    2.0199    0.2612    0.0000 C   0  0  0  0  0  0  0  0  0  0  0  0
    2.8449    0.2612    0.0000 C   0  0  0  0  0  0  0  0  0  0  0  0
    3.2575   -0.4532    0.0000 N   0  0  0  0  0  0  0  0  0  0  0  0
    2.8449   -1.1677    0.0000 C   0  0  0  0  0  0  0  0  0  0  0  0
    4.0825   -0.4532    0.0000 C   0  0  0  0  0  0  0  0  0  0  0  0
    3.2575   -1.8822    0.0000 C   0  0  0  0  0  0  0  0  0  0  0  0
    4.4948   -1.1677    0.0000 C   0  0  0  0  0  0  0  0  0  0  0  0
  1  2  1  0
  1  3  2  0
  1  4  1  0
  2  5  2  0
  2  6  1  0
  3  7  1  0
  3  8  1  0
  4  9  1  0
  4 10  2  0
  5 11  1  0
  6 12  2  0
  8 13  1  0
  9 14  2  0
  9 15  1  0
 11 16  2  0
 13 17  1  0
 14 18  1  0
 15 19  2  0
 17 20  1  0
 18 21  2  0
 18 22  1  0
 19 23  1  0
 21 24  1  0
 24 25  1  0
 25 26  1  0
 26 27  1  0
 27 28  1  0
 27 29  1  0
 28 30  1  0
 29 31  1  0
  5  7  1  0
 12 16  1  0
 19 21  1  0
M  END
>  <ALOGPS_LOGP>  (15) 
7.24

>  <ALOGPS_LOGS>  (15) 
-5.13

>  <ALOGPS_SOLUBILITY>  (15) 
4.76e-03 g/l

>  <DATABASE_NAME>  (15) 
drugbank

>  <DRUGBANK_ID>  (15) 
DB01118

>  <DRUG_GROUPS>  (15) 
approved; investigational

>  <EXACT_MASS>  (15) 
645.023680639

>  <FORMULA>  (15) 
C25H29I2NO3

>  <GENERIC_NAME>  (15) 
Amiodarone

>  <ID>  (15) 


>  <INCHI_IDENTIFIER>  (15) 
InChI=1S/C25H29I2NO3/c1-4-7-11-22-23(18-10-8-9-12-21(18)31-22)24(29)17-15-19(26)25(20(27)16-17)30-14-13-28(5-2)6-3/h8-10,12,15-16H,4-7,11,13-14H2,1-3H3

>  <INCHI_KEY>  (15) 
IYIKLHRQXLHMJQ-UHFFFAOYSA-N

>  <INTERNATIONAL_BRANDS>  (15) 
Amio-Aqueous IV; Aratac; Arycor; Atlansil; Tachyra

>  <JCHEM_ACCEPTOR_COUNT>  (15) 
3

>  <JCHEM_ATOM_COUNT>  (15) 
60

>  <JCHEM_AVERAGE_POLARIZABILITY>  (15) 
56.78106547403644

>  <JCHEM_BIOAVAILABILITY>  (15) 
0

>  <JCHEM_DONOR_COUNT>  (15) 
0

>  <JCHEM_FORMAL_CHARGE>  (15) 
0

>  <JCHEM_GHOSE_FILTER>  (15) 
0

>  <JCHEM_IUPAC>  (15) 
{2-[4-(2-butyl-1-benzofuran-3-carbonyl)-2,6-diiodophenoxy]ethyl}diethylamine

>  <JCHEM_LOGP>  (15) 
7.635421424666667

>  <JCHEM_MDDR_LIKE_RULE>  (15) 
1

>  <JCHEM_NUMBER_OF_RINGS>  (15) 
3

>  <JCHEM_PHYSIOLOGICAL_CHARGE>  (15) 
1

>  <JCHEM_PKA>  (15) 
nan

>  <JCHEM_PKA_STRONGEST_ACIDIC>  (15) 
nan

>  <JCHEM_PKA_STRONGEST_BASIC>  (15) 
8.466812373081993

>  <JCHEM_POLAR_SURFACE_AREA>  (15) 
42.68

>  <JCHEM_REFRACTIVITY>  (15) 
145.05479999999997

>  <JCHEM_ROTATABLE_BOND_COUNT>  (15) 
11

>  <JCHEM_RULE_OF_FIVE>  (15) 
0

>  <JCHEM_TRADITIONAL_IUPAC>  (15) 
amiodarone

>  <JCHEM_VEBER_RULE>  (15) 
0

>  <MOLECULAR_WEIGHT>  (15) 
645.3116

>  <PRODUCTS>  (15) 
Amiodarone; Amiodarone HCl; Amiodarone Hydrochloride; Amiodarone Hydrochloride Injection; Amiodarone Hydrochloride for Injection; Amiodarone Omega; Amiodarone Syringe; Amiodarone for Injection 50mg/ml; Amiodarone hydrochloride; Apo-amiodarone Tablets; Ava-amiodarone; Cordarone; Cordarone Intravenous - Liq IV 50mg/ml; Cordarone Tab 200mg; Dom-amiodarone; Jamp-amiodarone; Mylan-amiodarone; Nexterone; Ntp-amiodarone; Nu-amiodarone; PHL-amiodarone; PMS-amiodarone; Pacerone; Pendo-amiodarone; Pro-amiodarone - 200; Ratio-amiodarone; Ratio-amiodarone I.V.; Riva-amiodarone; Sandoz Amiodarone; Teva-amiodarone

>  <SALTS>  (15) 
Amiodarone hydrochloride

>  <SECONDARY_ACCESSION_NUMBERS>  (15) 
APRD00288

>  <SMILES>  (15) 
CCCCC1=C(C(=O)C2=CC(I)=C(OCCN(CC)CC)C(I)=C2)C2=C(O1)C=CC=C2

>  <SYNONYMS>  (15) 
2-Butyl-3-(3,5-diiodo-4-(2-diethylaminoethoxy)benzoyl)benzofuran; 2-Butyl-3-benzofuranyl 4-(2-(diethylamino)ethoxy)-3,5-diiodophenyl ketone; 2-n-Butyl-3',5'-diiodo-4'-N-diethylaminoethoxy-3-benzoylbenzofuran; Amiodarona; Amiodarone; Amiodaronum

>  <ECFP_FP>  (15) 
<rdkit.DataStructs.cDataStructs.ExplicitBitVect object at 0xa26661ad0>

>  <pki_G>  (15) 
6.192004

>  <pki_D>  (15) 
5.652832

>  <pki_B>  (15) 
5.45904

>  <pki_A>  (15) 
5.603639

>  <SelB>  (15) 
0.732964

>  <SelA>  (15) 
0.588365

>  <SelD>  (15) 
0.539172

>  <AvgABSel>  (15) 
0.660664

>  <MACCS_FP>  (15) 
[0. 0. 0. 0. 0. 0. 0. 0. 0. 0. 0. 0. 0. 0. 0. 0. 0. 0. 0. 0. 0. 0. 0. 0.
 0. 0. 0. 1. 0. 0. 0. 0. 0. 0. 0. 0. 0. 0. 0. 0. 0. 0. 0. 0. 0. 0. 0. 0.
 0. 0. 0. 0. 0. 0. 0. 0. 0. 1. 0. 0. 0. 0. 0. 0. 0. 0. 0. 0. 0. 0. 0. 0.
 0. 0. 0. 0. 0. 0. 0. 0. 0. 0. 0. 1. 0. 1. 1. 1. 0. 1. 0. 0. 0. 0. 0. 1.
 1. 0. 0. 0. 1. 1. 0. 0. 0. 1. 0. 1. 1. 1. 0. 1. 0. 1. 1. 1. 1. 0. 1. 0.
 0. 0. 1. 0. 0. 1. 1. 1. 0. 1. 0. 0. 1. 0. 1. 0. 0. 1. 1. 0. 0. 1. 0. 1.
 1. 1. 1. 1. 1. 1. 1. 0. 1. 1. 1. 1. 0. 1. 1. 1. 1. 1. 1. 1. 1. 1. 0.]

>  <MACCS_pki_G>  (15) 
5.964757

>  <MACCS_pki_D>  (15) 
5.748199

>  <MACCS_pki_B>  (15) 
5.675798

>  <MACCS_pki_A>  (15) 
6.230306

>  <MACCS_SelB>  (15) 
0.288959

>  <MACCS_SelA>  (15) 
-0.265549

>  <MACCS_SelD>  (15) 
0.216558

>  <MACCSAvgABSel>  (15) 
0.011705

>  <Pharm2D_FP>  (15) 
[0. 0. 0. ... 0. 0. 0.]

>  <Pharm2D_pki_G>  (15) 
5.754626

>  <Pharm2D_pki_D>  (15) 
5.439305

>  <Pharm2D_pki_B>  (15) 
5.301725

>  <Pharm2D_pki_A>  (15) 
5.212964

>  <Pharm2D_SelB>  (15) 
0.4529

>  <Pharm2D_SelA>  (15) 
0.541661

>  <Pharm2D_SelD>  (15) 
0.315321

>  <Pharm2DAvgABSel>  (15) 
0.497281

>  <QED>  (15) 
0.167647

$$$$
DB11719
     RDKit          2D

 23 24  0  0  0  0  0  0  0  0999 V2000
   -1.4289    0.8250    0.0000 C   0  0  0  0  0  0  0  0  0  0  0  0
   -1.4289    0.0000    0.0000 N   0  0  0  0  0  0  0  0  0  0  0  0
   -2.1434   -0.4125    0.0000 C   0  0  0  0  0  0  0  0  0  0  0  0
   -0.7145   -0.4125    0.0000 C   0  0  0  0  0  0  0  0  0  0  0  0
   -0.7145   -1.2375    0.0000 C   0  0  0  0  0  0  0  0  0  0  0  0
    0.0000   -1.6500    0.0000 C   0  0  0  0  0  0  0  0  0  0  0  0
    0.0000   -2.4750    0.0000 C   0  0  0  0  0  0  0  0  0  0  0  0
   -0.7145   -2.8875    0.0000 C   0  0  0  0  0  0  0  0  0  0  0  0
   -1.4289   -2.4750    0.0000 C   0  0  0  0  0  0  0  0  0  0  0  0
   -1.4289   -1.6500    0.0000 C   0  0  0  0  0  0  0  0  0  0  0  0
   -2.1434   -1.2375    0.0000 O   0  0  0  0  0  0  0  0  0  0  0  0
   -2.8579   -1.6500    0.0000 C   0  0  0  0  0  0  0  0  0  0  0  0
   -2.8579   -2.4750    0.0000 C   0  0  0  0  0  0  0  0  0  0  0  0
   -3.5724   -2.8875    0.0000 C   0  0  0  0  0  0  0  0  0  0  0  0
   -4.2868   -2.4750    0.0000 C   0  0  0  0  0  0  0  0  0  0  0  0
   -4.2868   -1.6500    0.0000 C   0  0  0  0  0  0  0  0  0  0  0  0
   -3.5724   -1.2375    0.0000 C   0  0  0  0  0  0  0  0  0  0  0  0
   -5.0013   -2.8875    0.0000 S   0  0  0  0  0  0  0  0  0  0  0  0
   -5.7158   -2.4750    0.0000 C   0  0  0  0  0  0  0  0  0  0  0  0
    0.7145   -2.8875    0.0000 S   0  0  0  0  0  0  0  0  0  0  0  0
    1.4289   -3.3000    0.0000 O   0  0  0  0  0  0  0  0  0  0  0  0
    0.3020   -3.6020    0.0000 O   0  0  0  0  0  0  0  0  0  0  0  0
    1.1270   -2.1730    0.0000 N   0  0  0  0  0  0  0  0  0  0  0  0
  1  2  1  0
  2  3  1  0
  2  4  1  0
  4  5  1  0
  5  6  2  0
  6  7  1  0
  7  8  2  0
  8  9  1  0
  9 10  2  0
  5 10  1  0
 10 11  1  0
 11 12  1  0
 12 13  2  0
 13 14  1  0
 14 15  2  0
 15 16  1  0
 16 17  2  0
 12 17  1  0
 15 18  1  0
 18 19  1  0
  7 20  1  0
 20 21  2  0
 20 22  2  0
 20 23  1  0
M  END
>  <ALOGPS_LOGP>  (16) 
2.72

>  <ALOGPS_LOGS>  (16) 
-4.11

>  <ALOGPS_SOLUBILITY>  (16) 
2.75e-02 g/l

>  <DATABASE_NAME>  (16) 
drugbank

>  <DRUGBANK_ID>  (16) 
DB11719

>  <DRUG_GROUPS>  (16) 
investigational

>  <EXACT_MASS>  (16) 
352.09153486

>  <FORMULA>  (16) 
C16H20N2O3S2

>  <GENERIC_NAME>  (16) 
UK-390957

>  <ID>  (16) 


>  <INCHI_IDENTIFIER>  (16) 
InChI=1S/C16H20N2O3S2/c1-18(2)11-12-10-15(23(17,19)20)8-9-16(12)21-13-4-6-14(22-3)7-5-13/h4-10H,11H2,1-3H3,(H2,17,19,20)

>  <INCHI_KEY>  (16) 
VCNSPGHSQPMCFF-UHFFFAOYSA-N

>  <INTERNATIONAL_BRANDS>  (16) 
nan

>  <JCHEM_ACCEPTOR_COUNT>  (16) 
3

>  <JCHEM_ATOM_COUNT>  (16) 
43

>  <JCHEM_AVERAGE_POLARIZABILITY>  (16) 
36.56996078065309

>  <JCHEM_BIOAVAILABILITY>  (16) 
1

>  <JCHEM_DONOR_COUNT>  (16) 
1

>  <JCHEM_FORMAL_CHARGE>  (16) 
0

>  <JCHEM_GHOSE_FILTER>  (16) 
1

>  <JCHEM_IUPAC>  (16) 
3-[(dimethylamino)methyl]-4-[4-(methylsulfanyl)phenoxy]benzene-1-sulfonamide

>  <JCHEM_LOGP>  (16) 
2.649177674

>  <JCHEM_MDDR_LIKE_RULE>  (16) 
0

>  <JCHEM_NUMBER_OF_RINGS>  (16) 
2

>  <JCHEM_PHYSIOLOGICAL_CHARGE>  (16) 
1

>  <JCHEM_PKA>  (16) 
nan

>  <JCHEM_PKA_STRONGEST_ACIDIC>  (16) 
10.348038172884797

>  <JCHEM_PKA_STRONGEST_BASIC>  (16) 
7.271900968381589

>  <JCHEM_POLAR_SURFACE_AREA>  (16) 
72.63

>  <JCHEM_REFRACTIVITY>  (16) 
95.75829999999999

>  <JCHEM_ROTATABLE_BOND_COUNT>  (16) 
6

>  <JCHEM_RULE_OF_FIVE>  (16) 
1

>  <JCHEM_TRADITIONAL_IUPAC>  (16) 
3-[(dimethylamino)methyl]-4-[4-(methylsulfanyl)phenoxy]benzenesulfonamide

>  <JCHEM_VEBER_RULE>  (16) 
0

>  <MOLECULAR_WEIGHT>  (16) 
352.47

>  <PRODUCTS>  (16) 
nan

>  <SALTS>  (16) 
nan

>  <SECONDARY_ACCESSION_NUMBERS>  (16) 
nan

>  <SMILES>  (16) 
CSC1=CC=C(OC2=CC=C(C=C2CN(C)C)S(N)(=O)=O)C=C1

>  <SYNONYMS>  (16) 
nan

>  <ECFP_FP>  (16) 
<rdkit.DataStructs.cDataStructs.ExplicitBitVect object at 0xa26bdb5d0>

>  <pki_G>  (16) 
6.183699

>  <pki_D>  (16) 
5.634867

>  <pki_B>  (16) 
5.483873

>  <pki_A>  (16) 
5.056059

>  <SelB>  (16) 
0.699826

>  <SelA>  (16) 
1.12764

>  <SelD>  (16) 
0.548832

>  <AvgABSel>  (16) 
0.913733

>  <MACCS_FP>  (16) 
[0. 0. 0. 0. 0. 0. 0. 0. 0. 0. 0. 0. 0. 0. 0. 0. 0. 0. 0. 0. 0. 0. 0. 0.
 0. 0. 0. 0. 0. 0. 0. 0. 1. 1. 0. 0. 0. 0. 0. 0. 0. 0. 0. 0. 0. 0. 0. 0.
 0. 0. 0. 1. 0. 0. 0. 1. 0. 0. 1. 1. 1. 1. 0. 0. 1. 0. 0. 1. 0. 1. 0. 0.
 0. 1. 1. 0. 0. 0. 0. 0. 0. 1. 0. 0. 1. 1. 1. 0. 1. 0. 0. 0. 0. 1. 1. 0.
 0. 1. 0. 0. 1. 0. 1. 0. 0. 0. 1. 0. 0. 0. 0. 0. 1. 1. 0. 1. 0. 1. 0. 0.
 0. 0. 1. 0. 1. 1. 1. 1. 0. 0. 1. 0. 0. 0. 0. 0. 1. 0. 0. 0. 0. 1. 1. 1.
 1. 1. 1. 0. 1. 1. 1. 1. 1. 1. 0. 1. 1. 1. 1. 1. 1. 1. 1. 1. 1. 1. 0.]

>  <MACCS_pki_G>  (16) 
5.964398

>  <MACCS_pki_D>  (16) 
6.52412

>  <MACCS_pki_B>  (16) 
5.560535

>  <MACCS_pki_A>  (16) 
6.181246

>  <MACCS_SelB>  (16) 
0.403863

>  <MACCS_SelA>  (16) 
-0.216848

>  <MACCS_SelD>  (16) 
-0.559722

>  <MACCSAvgABSel>  (16) 
0.093508

>  <Pharm2D_FP>  (16) 
[0. 0. 0. ... 0. 0. 0.]

>  <Pharm2D_pki_G>  (16) 
5.671544

>  <Pharm2D_pki_D>  (16) 
5.291283

>  <Pharm2D_pki_B>  (16) 
5.313266

>  <Pharm2D_pki_A>  (16) 
5.525972

>  <Pharm2D_SelB>  (16) 
0.358278

>  <Pharm2D_SelA>  (16) 
0.145571

>  <Pharm2D_SelD>  (16) 
0.380261

>  <Pharm2DAvgABSel>  (16) 
0.251925

>  <QED>  (16) 
0.809425

$$$$
DB08708
     RDKit          2D

 26 29  0  0  0  0  0  0  0  0999 V2000
   -3.2905    1.5618    0.0000 C   0  0  0  0  0  0  0  0  0  0  0  0
   -1.1666   -1.6854    0.0000 N   0  0  0  0  0  0  0  0  0  0  0  0
   -1.9314    2.0033    0.0000 C   0  0  0  0  0  0  0  0  0  0  0  0
   -1.1245    1.8318    0.0000 C   0  0  0  0  0  0  0  0  0  0  0  0
   -0.8695    1.0472    0.0000 C   0  0  0  0  0  0  0  0  0  0  0  0
   -0.3820   -1.4305    0.0000 C   0  0  0  0  0  0  0  0  0  0  0  0
    0.3325   -1.8430    0.0000 C   0  0  0  0  0  0  0  0  0  0  0  0
    1.0469   -0.6055    0.0000 C   0  0  0  0  0  0  0  0  0  0  0  0
    2.4759   -0.6055    0.0000 C   0  0  0  0  0  0  0  0  0  0  0  0
   -2.4835    1.3902    0.0000 C   0  0  0  0  0  0  0  0  0  0  0  0
   -2.2285    0.6056    0.0000 C   0  0  0  0  0  0  0  0  0  0  0  0
    1.0469   -1.4305    0.0000 C   0  0  0  0  0  0  0  0  0  0  0  0
    3.9048   -0.6055    0.0000 C   0  0  0  0  0  0  0  0  0  0  0  0
   -1.6516   -1.0180    0.0000 N   0  0  0  0  0  0  0  0  0  0  0  0
   -4.0974    1.7333    0.0000 F   0  0  0  0  0  0  0  0  0  0  0  0
   -3.4620    0.7548    0.0000 F   0  0  0  0  0  0  0  0  0  0  0  0
   -3.1189    2.3687    0.0000 F   0  0  0  0  0  0  0  0  0  0  0  0
   -1.4216    0.4341    0.0000 C   0  0  0  0  0  0  0  0  0  0  0  0
   -1.1666   -0.3505    0.0000 C   0  0  0  0  0  0  0  0  0  0  0  0
    1.7614   -0.1930    0.0000 N   0  0  0  0  0  0  0  0  0  0  0  0
    3.1903   -0.1930    0.0000 C   0  0  0  0  0  0  0  0  0  0  0  0
    3.9048   -1.4305    0.0000 C   0  0  0  0  0  0  0  0  0  0  0  0
    3.1903   -1.8430    0.0000 C   0  0  0  0  0  0  0  0  0  0  0  0
    2.4759   -1.4305    0.0000 C   0  0  0  0  0  0  0  0  0  0  0  0
    0.3325   -0.1930    0.0000 N   0  0  0  0  0  0  0  0  0  0  0  0
   -0.3820   -0.6055    0.0000 N   0  0  0  0  0  0  0  0  0  0  0  0
  1 15  1  0
  1 10  1  0
  2 14  1  0
  3  4  2  0
  5  4  1  0
  6  2  2  0
  7  6  1  0
  8 12  1  0
  8 25  2  0
  9 21  1  0
  9 20  1  0
 10  3  1  0
 11 10  2  0
 11 18  1  0
 12  7  2  0
 13 21  1  0
 16  1  1  0
 17  1  1  0
 18  5  2  0
 19 14  2  0
 19 18  1  0
 20  8  1  0
 22 13  1  0
 23 22  1  0
 23 24  1  0
 24  9  1  0
 25 26  1  0
 26  6  1  0
 26 19  1  0
M  END
>  <ALOGPS_LOGP>  (17) 
4.37

>  <ALOGPS_LOGS>  (17) 
-4.48

>  <ALOGPS_SOLUBILITY>  (17) 
1.19e-02 g/l

>  <DATABASE_NAME>  (17) 
drugbank

>  <DRUGBANK_ID>  (17) 
DB08708

>  <DRUG_GROUPS>  (17) 
experimental

>  <EXACT_MASS>  (17) 
361.151430216

>  <FORMULA>  (17) 
C18H18F3N5

>  <GENERIC_NAME>  (17) 
N-cyclohexyl-3-[3-(trifluoromethyl)phenyl][1,2,4]triazolo[4,3-b]pyridazin-6-amine

>  <ID>  (17) 
VX2

>  <INCHI_IDENTIFIER>  (17) 
InChI=1S/C18H18F3N5/c19-18(20,21)13-6-4-5-12(11-13)17-24-23-16-10-9-15(25-26(16)17)22-14-7-2-1-3-8-14/h4-6,9-11,14H,1-3,7-8H2,(H,22,25)

>  <INCHI_KEY>  (17) 
XYYDXQCAYXOGQT-UHFFFAOYSA-N

>  <INTERNATIONAL_BRANDS>  (17) 
nan

>  <JCHEM_ACCEPTOR_COUNT>  (17) 
4

>  <JCHEM_ATOM_COUNT>  (17) 
nan

>  <JCHEM_AVERAGE_POLARIZABILITY>  (17) 
35.01700744337459

>  <JCHEM_BIOAVAILABILITY>  (17) 
1

>  <JCHEM_DONOR_COUNT>  (17) 
1

>  <JCHEM_FORMAL_CHARGE>  (17) 
0

>  <JCHEM_GHOSE_FILTER>  (17) 
1

>  <JCHEM_IUPAC>  (17) 
N-cyclohexyl-3-[3-(trifluoromethyl)phenyl]-[1,2,4]triazolo[4,3-b]pyridazin-6-amine

>  <JCHEM_LOGP>  (17) 
4.4616458806666675

>  <JCHEM_MDDR_LIKE_RULE>  (17) 
0

>  <JCHEM_NUMBER_OF_RINGS>  (17) 
4

>  <JCHEM_PHYSIOLOGICAL_CHARGE>  (17) 
0

>  <JCHEM_PKA>  (17) 
nan

>  <JCHEM_PKA_STRONGEST_ACIDIC>  (17) 
18.448641825836514

>  <JCHEM_PKA_STRONGEST_BASIC>  (17) 
1.837638378088397

>  <JCHEM_POLAR_SURFACE_AREA>  (17) 
55.11

>  <JCHEM_REFRACTIVITY>  (17) 
116.58659999999999

>  <JCHEM_ROTATABLE_BOND_COUNT>  (17) 
4

>  <JCHEM_RULE_OF_FIVE>  (17) 
1

>  <JCHEM_TRADITIONAL_IUPAC>  (17) 
N-cyclohexyl-3-[3-(trifluoromethyl)phenyl]-[1,2,4]triazolo[4,3-b]pyridazin-6-amine

>  <JCHEM_VEBER_RULE>  (17) 
0

>  <MOLECULAR_WEIGHT>  (17) 
361.3642

>  <PRODUCTS>  (17) 
nan

>  <SALTS>  (17) 
nan

>  <SECONDARY_ACCESSION_NUMBERS>  (17) 
nan

>  <SMILES>  (17) 
FC(F)(F)C1=CC=CC(=C1)C1=NN=C2C=CC(NC3CCCCC3)=NN12

>  <SYNONYMS>  (17) 
nan

>  <ECFP_FP>  (17) 
<rdkit.DataStructs.cDataStructs.ExplicitBitVect object at 0xa26b4c710>

>  <pki_G>  (17) 
6.182124

>  <pki_D>  (17) 
5.605176

>  <pki_B>  (17) 
5.571781

>  <pki_A>  (17) 
5.335788

>  <SelB>  (17) 
0.610343

>  <SelA>  (17) 
0.846336

>  <SelD>  (17) 
0.576948

>  <AvgABSel>  (17) 
0.72834

>  <MACCS_FP>  (17) 
[0. 0. 0. 0. 0. 0. 0. 0. 0. 0. 0. 0. 0. 0. 0. 0. 0. 0. 0. 0. 0. 0. 0. 0.
 0. 0. 0. 0. 0. 0. 0. 0. 0. 0. 0. 0. 0. 0. 1. 0. 0. 0. 1. 0. 0. 0. 0. 0.
 0. 0. 0. 0. 1. 0. 0. 0. 0. 0. 0. 0. 0. 0. 1. 0. 0. 1. 0. 0. 0. 0. 0. 0.
 0. 0. 0. 0. 0. 1. 0. 1. 1. 0. 0. 1. 0. 0. 0. 0. 0. 0. 1. 1. 0. 0. 1. 0.
 1. 0. 1. 0. 0. 1. 0. 0. 1. 1. 1. 1. 0. 0. 0. 1. 1. 0. 0. 0. 0. 0. 1. 0.
 1. 1. 1. 0. 1. 1. 0. 0. 1. 1. 1. 0. 0. 1. 1. 1. 0. 1. 0. 0. 0. 0. 1. 0.
 0. 1. 0. 1. 1. 0. 0. 1. 0. 0. 0. 0. 1. 0. 1. 0. 0. 1. 1. 1. 0. 1. 0.]

>  <MACCS_pki_G>  (17) 
6.285243

>  <MACCS_pki_D>  (17) 
6.427156

>  <MACCS_pki_B>  (17) 
5.843306

>  <MACCS_pki_A>  (17) 
5.649111

>  <MACCS_SelB>  (17) 
0.441938

>  <MACCS_SelA>  (17) 
0.636132

>  <MACCS_SelD>  (17) 
-0.141912

>  <MACCSAvgABSel>  (17) 
0.539035

>  <Pharm2D_FP>  (17) 
[0. 0. 0. ... 0. 0. 0.]

>  <Pharm2D_pki_G>  (17) 
5.836693

>  <Pharm2D_pki_D>  (17) 
5.732891

>  <Pharm2D_pki_B>  (17) 
5.550243

>  <Pharm2D_pki_A>  (17) 
5.824704

>  <Pharm2D_SelB>  (17) 
0.28645

>  <Pharm2D_SelA>  (17) 
0.011989

>  <Pharm2D_SelD>  (17) 
0.103802

>  <Pharm2DAvgABSel>  (17) 
0.14922

>  <QED>  (17) 
0.743298

$$$$
DB04154
     RDKit          2D

 26 29  0  0  0  0  0  0  0  0999 V2000
   -0.4761   -3.0232    0.0000 O   0  0  0  0  0  0  0  0  0  0  0  0
    0.1317    1.0124    0.0000 N   0  0  0  0  0  0  0  0  0  0  0  0
   -0.5828    1.4249    0.0000 N   0  0  0  0  0  0  0  0  0  0  0  0
   -0.5828    2.2499    0.0000 C   0  0  0  0  0  0  0  0  0  0  0  0
    0.1317    2.6624    0.0000 C   0  0  0  0  0  0  0  0  0  0  0  0
    0.8462    2.2499    0.0000 C   0  0  0  0  0  0  0  0  0  0  0  0
    0.8462    1.4249    0.0000 C   0  0  0  0  0  0  0  0  0  0  0  0
   -1.3674    1.1699    0.0000 C   0  0  0  0  0  0  0  0  0  0  0  0
   -1.8523    1.8374    0.0000 N   0  0  0  0  0  0  0  0  0  0  0  0
   -1.3674    2.5048    0.0000 N   0  0  0  0  0  0  0  0  0  0  0  0
    1.5607    1.0124    0.0000 C   0  0  0  0  0  0  0  0  0  0  0  0
   -1.6223    0.3853    0.0000 C   0  0  0  0  0  0  0  0  0  0  0  0
   -1.0703   -0.2278    0.0000 C   0  0  0  0  0  0  0  0  0  0  0  0
   -1.3252   -1.0124    0.0000 C   0  0  0  0  0  0  0  0  0  0  0  0
   -2.1322   -1.1839    0.0000 C   0  0  0  0  0  0  0  0  0  0  0  0
   -2.6842   -0.5709    0.0000 C   0  0  0  0  0  0  0  0  0  0  0  0
   -2.4293    0.2138    0.0000 C   0  0  0  0  0  0  0  0  0  0  0  0
    2.2751    1.4249    0.0000 C   0  0  0  0  0  0  0  0  0  0  0  0
    2.9896    1.0124    0.0000 C   0  0  0  0  0  0  0  0  0  0  0  0
    2.9896    0.1874    0.0000 C   0  0  0  0  0  0  0  0  0  0  0  0
    2.2751   -0.2251    0.0000 C   0  0  0  0  0  0  0  0  0  0  0  0
    1.5607    0.1874    0.0000 C   0  0  0  0  0  0  0  0  0  0  0  0
   -0.7732   -1.6255    0.0000 N   0  0  0  0  0  0  0  0  0  0  0  0
    0.0338   -1.4540    0.0000 C   0  0  0  0  0  0  0  0  0  0  0  0
   -1.0281   -2.4101    0.0000 C   0  0  0  0  0  0  0  0  0  0  0  0
   -1.8351   -2.5817    0.0000 C   0  0  0  0  0  0  0  0  0  0  0  0
  1 25  2  0
  2  3  1  0
  2  7  2  0
  3  4  1  0
  3  8  1  0
  4  5  1  0
  4 10  2  0
  5  6  2  0
  6  7  1  0
  7 11  1  0
  8  9  2  0
  8 12  1  0
  9 10  1  0
 11 18  2  0
 11 22  1  0
 12 13  2  0
 12 17  1  0
 13 14  1  0
 14 15  2  0
 14 23  1  0
 15 16  1  0
 16 17  2  0
 18 19  1  0
 19 20  2  0
 20 21  1  0
 21 22  2  0
 23 24  1  0
 23 25  1  0
 25 26  1  0
M  END
>  <ALOGPS_LOGP>  (18) 
2.99

>  <ALOGPS_LOGS>  (18) 
-4.15

>  <ALOGPS_SOLUBILITY>  (18) 
2.45e-02 g/l

>  <DATABASE_NAME>  (18) 
drugbank

>  <DRUGBANK_ID>  (18) 
DB04154

>  <DRUG_GROUPS>  (18) 
experimental

>  <EXACT_MASS>  (18) 
343.143310191

>  <FORMULA>  (18) 
C20H17N5O

>  <GENERIC_NAME>  (18) 
N-Methyl-N-[3-(6-Phenyl[1,2,4]Triazolo[4,3-B]Pyridazin-3-Yl)Phenyl]Acetamide

>  <ID>  (18) 
CL3

>  <INCHI_IDENTIFIER>  (18) 
InChI=1S/C20H17N5O/c1-14(26)24(2)17-10-6-9-16(13-17)20-22-21-19-12-11-18(23-25(19)20)15-7-4-3-5-8-15/h3-13H,1-2H3

>  <INCHI_KEY>  (18) 
ALBWBHNFOJJMCV-UHFFFAOYSA-N

>  <INTERNATIONAL_BRANDS>  (18) 
nan

>  <JCHEM_ACCEPTOR_COUNT>  (18) 
4

>  <JCHEM_ATOM_COUNT>  (18) 
nan

>  <JCHEM_AVERAGE_POLARIZABILITY>  (18) 
36.50587987816393

>  <JCHEM_BIOAVAILABILITY>  (18) 
1

>  <JCHEM_DONOR_COUNT>  (18) 
0

>  <JCHEM_FORMAL_CHARGE>  (18) 
0

>  <JCHEM_GHOSE_FILTER>  (18) 
1

>  <JCHEM_IUPAC>  (18) 
N-methyl-N-(3-{6-phenyl-[1,2,4]triazolo[4,3-b]pyridazin-3-yl}phenyl)acetamide

>  <JCHEM_LOGP>  (18) 
2.8521433336666684

>  <JCHEM_MDDR_LIKE_RULE>  (18) 
0

>  <JCHEM_NUMBER_OF_RINGS>  (18) 
4

>  <JCHEM_PHYSIOLOGICAL_CHARGE>  (18) 
0

>  <JCHEM_PKA>  (18) 
nan

>  <JCHEM_PKA_STRONGEST_ACIDIC>  (18) 
nan

>  <JCHEM_PKA_STRONGEST_BASIC>  (18) 
1.3639026283011995

>  <JCHEM_POLAR_SURFACE_AREA>  (18) 
63.39000000000001

>  <JCHEM_REFRACTIVITY>  (18) 
121.83450000000002

>  <JCHEM_ROTATABLE_BOND_COUNT>  (18) 
3

>  <JCHEM_RULE_OF_FIVE>  (18) 
1

>  <JCHEM_TRADITIONAL_IUPAC>  (18) 
N-methyl-N-(3-{6-phenyl-[1,2,4]triazolo[4,3-b]pyridazin-3-yl}phenyl)acetamide

>  <JCHEM_VEBER_RULE>  (18) 
0

>  <MOLECULAR_WEIGHT>  (18) 
343.3819

>  <PRODUCTS>  (18) 
nan

>  <SALTS>  (18) 
nan

>  <SECONDARY_ACCESSION_NUMBERS>  (18) 
EXPT00933

>  <SMILES>  (18) 
CN(C(C)=O)C1=CC=CC(=C1)C1=NN=C2C=CC(=NN12)C1=CC=CC=C1

>  <SYNONYMS>  (18) 
nan

>  <ECFP_FP>  (18) 
<rdkit.DataStructs.cDataStructs.ExplicitBitVect object at 0xa2694c4e0>

>  <pki_G>  (18) 
6.175002

>  <pki_D>  (18) 
5.55049

>  <pki_B>  (18) 
5.557459

>  <pki_A>  (18) 
5.555256

>  <SelB>  (18) 
0.617543

>  <SelA>  (18) 
0.619746

>  <SelD>  (18) 
0.624512

>  <AvgABSel>  (18) 
0.618645

>  <MACCS_FP>  (18) 
[0. 0. 0. 0. 0. 0. 0. 0. 0. 0. 0. 0. 0. 0. 0. 0. 0. 0. 0. 0. 0. 0. 0. 0.
 0. 0. 0. 0. 0. 0. 0. 0. 0. 0. 0. 0. 0. 0. 1. 0. 0. 0. 0. 0. 0. 0. 0. 0.
 0. 0. 0. 0. 1. 0. 0. 0. 0. 0. 0. 0. 0. 0. 1. 0. 0. 1. 0. 0. 0. 0. 0. 0.
 0. 0. 0. 0. 0. 1. 0. 1. 1. 0. 0. 1. 0. 1. 0. 0. 0. 0. 0. 0. 1. 1. 1. 0.
 1. 0. 1. 0. 0. 1. 0. 0. 0. 1. 0. 0. 0. 0. 1. 0. 0. 0. 0. 0. 0. 1. 0. 0.
 1. 1. 1. 0. 1. 1. 0. 0. 0. 0. 1. 0. 0. 1. 0. 1. 0. 1. 0. 0. 0. 0. 1. 0.
 0. 1. 0. 0. 1. 1. 0. 0. 0. 0. 1. 0. 1. 0. 1. 0. 1. 1. 1. 1. 1. 1. 0.]

>  <MACCS_pki_G>  (18) 
5.915407

>  <MACCS_pki_D>  (18) 
6.049185

>  <MACCS_pki_B>  (18) 
5.39254

>  <MACCS_pki_A>  (18) 
5.100182

>  <MACCS_SelB>  (18) 
0.522867

>  <MACCS_SelA>  (18) 
0.815224

>  <MACCS_SelD>  (18) 
-0.133779

>  <MACCSAvgABSel>  (18) 
0.669046

>  <Pharm2D_FP>  (18) 
[0. 0. 0. ... 0. 0. 0.]

>  <Pharm2D_pki_G>  (18) 
5.890098

>  <Pharm2D_pki_D>  (18) 
5.681833

>  <Pharm2D_pki_B>  (18) 
5.26913

>  <Pharm2D_pki_A>  (18) 
5.651389

>  <Pharm2D_SelB>  (18) 
0.620968

>  <Pharm2D_SelA>  (18) 
0.238709

>  <Pharm2D_SelD>  (18) 
0.208265

>  <Pharm2DAvgABSel>  (18) 
0.429838

>  <QED>  (18) 
0.57153

$$$$
DB05155
     RDKit          2D

 49 51  0  0  1  0  0  0  0  0999 V2000
    5.5267  -11.4943    0.0000 C   0  0  0  0  0  0  0  0  0  0  0  0
    4.7072  -11.3996    0.0000 C   0  0  0  0  0  0  0  0  0  0  0  0
    4.3793  -10.6426    0.0000 C   0  0  0  0  0  0  0  0  0  0  0  0
    3.5598  -10.5479    0.0000 C   0  0  0  0  0  0  0  0  0  0  0  0
    3.2320   -9.7908    0.0000 C   0  0  0  0  0  0  0  0  0  0  0  0
    2.4124   -9.6962    0.0000 C   0  0  0  0  0  0  0  0  0  0  0  0
    2.0846   -8.9391    0.0000 O   0  0  0  0  0  0  0  0  0  0  0  0
    1.9207  -10.3587    0.0000 N   0  0  0  0  0  0  0  0  0  0  0  0
    1.1011  -10.2640    0.0000 C   0  0  0  0  0  0  0  0  0  0  0  0
    0.7733   -9.5069    0.0000 C   0  0  0  0  0  0  0  0  0  0  0  0
    1.2650   -8.8445    0.0000 C   0  0  0  0  0  0  0  0  0  0  0  0
    0.9372   -8.0874    0.0000 C   0  0  0  0  0  0  0  0  0  0  0  0
    1.4289   -7.4250    0.0000 N   0  0  0  0  0  0  0  0  0  0  0  0
    1.1011   -6.6679    0.0000 C   0  0  0  0  0  0  0  0  0  0  0  0
    1.5929   -6.0055    0.0000 N   0  0  0  0  0  0  0  0  0  0  0  0
    0.2816   -6.5733    0.0000 N   0  0  0  0  0  0  0  0  0  0  0  0
    0.6094  -10.9265    0.0000 C   0  0  0  0  0  0  0  0  0  0  0  0
    0.9372  -11.6835    0.0000 O   0  0  0  0  0  0  0  0  0  0  0  0
   -0.2102  -10.8318    0.0000 N   0  0  0  0  0  0  0  0  0  0  0  0
   -0.7019  -11.4943    0.0000 C   0  0  0  0  0  0  0  0  0  0  0  0
   -1.5215  -11.3996    0.0000 C   0  0  0  0  0  0  0  0  0  0  0  0
   -2.0132  -12.0621    0.0000 C   0  0  0  0  0  0  0  0  0  0  0  0
   -2.8327  -11.9674    0.0000 C   0  0  0  0  0  0  0  0  0  0  0  0
   -3.1606  -11.2104    0.0000 N   0  0  0  0  0  0  0  0  0  0  0  0
   -2.6688  -10.5479    0.0000 C   0  0  0  0  0  0  0  0  0  0  0  0
   -1.8493  -10.6426    0.0000 C   0  0  0  0  0  0  0  0  0  0  0  0
    3.7237   -9.1284    0.0000 N   0  0  0  0  0  0  0  0  0  0  0  0
    4.5432   -9.2230    0.0000 C   0  0  0  0  0  0  0  0  0  0  0  0
    4.8711   -9.9801    0.0000 O   0  0  0  0  0  0  0  0  0  0  0  0
    5.0350   -8.5606    0.0000 C   0  0  0  0  0  0  0  0  0  0  0  0
    4.7072   -7.8035    0.0000 C   0  0  0  0  0  0  0  0  0  0  0  0
    3.8876   -7.7089    0.0000 C   0  0  0  0  0  0  0  0  0  0  0  0
    3.3959   -8.3713    0.0000 C   0  0  0  0  0  0  0  0  0  0  0  0
    2.5763   -8.2767    0.0000 C   0  0  0  0  0  0  0  0  0  0  0  0
    2.2485   -7.5196    0.0000 C   0  0  0  0  0  0  0  0  0  0  0  0
    2.7402   -6.8572    0.0000 C   0  0  0  0  0  0  0  0  0  0  0  0
    3.5598   -6.9518    0.0000 C   0  0  0  0  0  0  0  0  0  0  0  0
    5.8545   -8.6552    0.0000 N   0  0  0  0  0  0  0  0  0  0  0  0
    6.3463   -7.9928    0.0000 C   0  0  0  0  0  0  0  0  0  0  0  0
    6.0184   -7.2357    0.0000 O   0  0  0  0  0  0  0  0  0  0  0  0
    7.1658   -8.0874    0.0000 C   0  0  0  0  0  0  0  0  0  0  0  0
    7.6576   -7.4250    0.0000 C   0  0  0  0  0  0  0  0  0  0  0  0
    8.4771   -7.5196    0.0000 C   0  0  0  0  0  0  0  0  0  0  0  0
    8.9688   -6.8572    0.0000 C   0  0  0  0  0  0  0  0  0  0  0  0
    9.7884   -6.9518    0.0000 C   0  0  0  0  0  0  0  0  0  0  0  0
   10.1162   -7.7089    0.0000 C   0  0  0  0  0  0  0  0  0  0  0  0
    9.6245   -8.3713    0.0000 C   0  0  0  0  0  0  0  0  0  0  0  0
    8.8049   -8.2767    0.0000 C   0  0  0  0  0  0  0  0  0  0  0  0
    7.4936   -8.8445    0.0000 N   0  0  0  0  0  0  0  0  0  0  0  0
  1  2  1  0
  2  3  1  0
  3  4  1  0
  5  4  1  6
  5  6  1  0
  6  7  2  0
  6  8  1  0
  9  8  1  0
  9 10  1  1
 10 11  1  0
 11 12  1  0
 12 13  1  0
 13 14  1  0
 14 15  2  0
 14 16  1  0
  9 17  1  0
 17 18  2  0
 17 19  1  0
 19 20  1  0
 20 21  1  0
 21 22  2  0
 22 23  1  0
 23 24  2  0
 24 25  1  0
 25 26  2  0
 21 26  1  0
  5 27  1  0
 27 28  1  0
 28 29  2  0
 28 30  1  0
 30 31  1  1
 31 32  1  0
 32 33  2  0
 33 34  1  0
 34 35  2  0
 35 36  1  0
 36 37  2  0
 32 37  1  0
 30 38  1  0
 38 39  1  0
 39 40  2  0
 39 41  1  0
 41 42  1  0
 42 43  1  0
 43 44  2  0
 44 45  1  0
 45 46  2  0
 46 47  1  0
 47 48  2  0
 43 48  1  0
 41 49  1  1
M  END
>  <ALOGPS_LOGP>  (19) 
1.41

>  <ALOGPS_LOGS>  (19) 
-5.28

>  <ALOGPS_SOLUBILITY>  (19) 
3.49e-03 g/l

>  <DATABASE_NAME>  (19) 
drugbank

>  <DRUGBANK_ID>  (19) 
DB05155

>  <DRUG_GROUPS>  (19) 
investigational

>  <EXACT_MASS>  (19) 
671.390751094

>  <FORMULA>  (19) 
C36H49N9O4

>  <GENERIC_NAME>  (19) 
CR665

>  <ID>  (19) 


>  <INCHI_IDENTIFIER>  (19) 
InChI=1S/C36H49N9O4/c1-2-3-15-30(34(48)43-29(16-10-19-41-36(38)39)33(47)42-24-27-17-20-40-21-18-27)44-35(49)31(23-26-13-8-5-9-14-26)45-32(46)28(37)22-25-11-6-4-7-12-25/h4-9,11-14,17-18,20-21,28-31H,2-3,10,15-16,19,22-24,37H2,1H3,(H,42,47)(H,43,48)(H,44,49)(H,45,46)(H4,38,39,41)/t28-,29-,30-,31-/m1/s1

>  <INCHI_KEY>  (19) 
DBOGGOVKHSCMNB-OMRVPHBLSA-N

>  <INTERNATIONAL_BRANDS>  (19) 
nan

>  <JCHEM_ACCEPTOR_COUNT>  (19) 
9

>  <JCHEM_ATOM_COUNT>  (19) 
98

>  <JCHEM_AVERAGE_POLARIZABILITY>  (19) 
74.00276819443741

>  <JCHEM_BIOAVAILABILITY>  (19) 
0

>  <JCHEM_DONOR_COUNT>  (19) 
8

>  <JCHEM_FORMAL_CHARGE>  (19) 
0

>  <JCHEM_GHOSE_FILTER>  (19) 
0

>  <JCHEM_IUPAC>  (19) 
(2R)-2-[(2R)-2-[(2R)-2-amino-3-phenylpropanamido]-3-phenylpropanamido]-N-[(1R)-4-carbamimidamido-1-{[(pyridin-4-yl)methyl]carbamoyl}butyl]hexanamide

>  <JCHEM_LOGP>  (19) 
1.1215495223931056

>  <JCHEM_MDDR_LIKE_RULE>  (19) 
1

>  <JCHEM_NUMBER_OF_RINGS>  (19) 
3

>  <JCHEM_PHYSIOLOGICAL_CHARGE>  (19) 
2

>  <JCHEM_PKA>  (19) 
12.621455688006733

>  <JCHEM_PKA_STRONGEST_ACIDIC>  (19) 
12.17934375253419

>  <JCHEM_PKA_STRONGEST_BASIC>  (19) 
11.687289817475945

>  <JCHEM_POLAR_SURFACE_AREA>  (19) 
217.21

>  <JCHEM_REFRACTIVITY>  (19) 
197.9538999999999

>  <JCHEM_ROTATABLE_BOND_COUNT>  (19) 
20

>  <JCHEM_RULE_OF_FIVE>  (19) 
0

>  <JCHEM_TRADITIONAL_IUPAC>  (19) 
(2R)-2-[(2R)-2-[(2R)-2-amino-3-phenylpropanamido]-3-phenylpropanamido]-N-[(1R)-4-carbamimidamido-1-[(pyridin-4-ylmethyl)carbamoyl]butyl]hexanamide

>  <JCHEM_VEBER_RULE>  (19) 
0

>  <MOLECULAR_WEIGHT>  (19) 
671.847

>  <PRODUCTS>  (19) 
nan

>  <SALTS>  (19) 
nan

>  <SECONDARY_ACCESSION_NUMBERS>  (19) 
nan

>  <SMILES>  (19) 
CCCC[C@@H](NC(=O)[C@@H](CC1=CC=CC=C1)NC(=O)[C@H](N)CC1=CC=CC=C1)C(=O)N[C@H](CCCNC(N)=N)C(=O)NCC1=CC=NC=C1

>  <SYNONYMS>  (19) 
nan

>  <ECFP_FP>  (19) 
<rdkit.DataStructs.cDataStructs.ExplicitBitVect object at 0xa269cf800>

>  <pki_G>  (19) 
6.17292

>  <pki_D>  (19) 
5.744087

>  <pki_B>  (19) 
5.520166

>  <pki_A>  (19) 
6.032571

>  <SelB>  (19) 
0.652753

>  <SelA>  (19) 
0.140348

>  <SelD>  (19) 
0.428833

>  <AvgABSel>  (19) 
0.396551

>  <MACCS_FP>  (19) 
[0. 0. 0. 0. 0. 0. 0. 0. 0. 0. 0. 0. 0. 0. 0. 0. 0. 0. 0. 0. 0. 0. 0. 0.
 0. 1. 0. 0. 0. 0. 0. 0. 0. 0. 0. 0. 0. 0. 0. 0. 0. 0. 0. 1. 0. 0. 0. 0.
 0. 0. 0. 0. 0. 0. 1. 0. 0. 0. 0. 0. 0. 0. 0. 0. 0. 1. 0. 0. 0. 0. 0. 0.
 0. 0. 0. 0. 0. 1. 1. 1. 0. 0. 1. 0. 1. 0. 0. 0. 0. 0. 1. 1. 1. 0. 0. 1.
 0. 0. 1. 0. 1. 0. 0. 0. 1. 0. 1. 0. 0. 0. 1. 1. 0. 0. 1. 1. 1. 1. 1. 1.
 0. 1. 0. 0. 0. 1. 0. 0. 1. 0. 0. 1. 0. 0. 0. 0. 1. 1. 1. 0. 1. 0. 1. 0.
 0. 1. 1. 1. 0. 0. 0. 1. 0. 1. 1. 1. 1. 0. 1. 1. 1. 1. 1. 1. 1. 1. 0.]

>  <MACCS_pki_G>  (19) 
6.135975

>  <MACCS_pki_D>  (19) 
6.026277

>  <MACCS_pki_B>  (19) 
5.386826

>  <MACCS_pki_A>  (19) 
5.572281

>  <MACCS_SelB>  (19) 
0.749149

>  <MACCS_SelA>  (19) 
0.563695

>  <MACCS_SelD>  (19) 
0.109698

>  <MACCSAvgABSel>  (19) 
0.656422

>  <Pharm2D_FP>  (19) 
[0. 0. 0. ... 0. 0. 0.]

>  <Pharm2D_pki_G>  (19) 
6.333186

>  <Pharm2D_pki_D>  (19) 
5.686377

>  <Pharm2D_pki_B>  (19) 
5.65315

>  <Pharm2D_pki_A>  (19) 
5.292763

>  <Pharm2D_SelB>  (19) 
0.680036

>  <Pharm2D_SelA>  (19) 
1.040423

>  <Pharm2D_SelD>  (19) 
0.646809

>  <Pharm2DAvgABSel>  (19) 
0.86023

>  <QED>  (19) 
0.049797

$$$$
DB07685
     RDKit          2D

 28 31  0  0  0  0  0  0  0  0999 V2000
   -4.6049   -3.6865    0.0000 O   0  0  0  0  0  0  0  0  0  0  0  0
   -3.8904   -3.2740    0.0000 S   0  0  0  0  0  0  0  0  0  0  0  0
   -3.4779   -3.9884    0.0000 O   0  0  0  0  0  0  0  0  0  0  0  0
   -4.3029   -2.5595    0.0000 N   0  0  0  0  0  0  0  0  0  0  0  0
   -3.1759   -2.8615    0.0000 C   0  0  0  0  0  0  0  0  0  0  0  0
   -3.1759   -2.0365    0.0000 C   0  0  0  0  0  0  0  0  0  0  0  0
   -2.4615   -3.2740    0.0000 C   0  0  0  0  0  0  0  0  0  0  0  0
   -1.7470   -2.8615    0.0000 C   0  0  0  0  0  0  0  0  0  0  0  0
   -2.4615   -1.6240    0.0000 C   0  0  0  0  0  0  0  0  0  0  0  0
   -1.7470   -2.0365    0.0000 C   0  0  0  0  0  0  0  0  0  0  0  0
   -1.0325   -1.6240    0.0000 N   0  0  0  0  0  0  0  0  0  0  0  0
   -1.0325   -0.7990    0.0000 C   0  0  0  0  0  0  0  0  0  0  0  0
   -1.7470   -0.3865    0.0000 N   0  0  0  0  0  0  0  0  0  0  0  0
   -1.7470    0.4385    0.0000 C   0  0  0  0  0  0  0  0  0  0  0  0
   -1.0325    0.8510    0.0000 N   0  0  0  0  0  0  0  0  0  0  0  0
   -2.5316    0.6935    0.0000 N   0  0  0  0  0  0  0  0  0  0  0  0
   -3.0165    0.0260    0.0000 C   0  0  0  0  0  0  0  0  0  0  0  0
   -2.5316   -0.6414    0.0000 N   0  0  0  0  0  0  0  0  0  0  0  0
   -0.3181   -0.3865    0.0000 C   0  0  0  0  0  0  0  0  0  0  0  0
   -0.3181    0.4385    0.0000 C   0  0  0  0  0  0  0  0  0  0  0  0
    0.3964    1.6760    0.0000 C   0  0  0  0  0  0  0  0  0  0  0  0
    0.3964    0.8510    0.0000 O   0  0  0  0  0  0  0  0  0  0  0  0
    1.1109    2.0885    0.0000 C   0  0  0  0  0  0  0  0  0  0  0  0
    1.1109    2.9135    0.0000 C   0  0  0  0  0  0  0  0  0  0  0  0
    1.8254    3.3260    0.0000 C   0  0  0  0  0  0  0  0  0  0  0  0
    2.5398    2.9135    0.0000 C   0  0  0  0  0  0  0  0  0  0  0  0
    2.5398    2.0885    0.0000 C   0  0  0  0  0  0  0  0  0  0  0  0
    1.8254    1.6760    0.0000 C   0  0  0  0  0  0  0  0  0  0  0  0
  1  2  2  0
  2  3  2  0
  2  4  1  0
  2  5  1  0
  5  6  2  0
  5  7  1  0
  6  9  1  0
  7  8  2  0
  8 10  1  0
  9 10  2  0
 10 11  1  0
 11 12  1  0
 12 13  1  0
 12 19  2  0
 13 14  1  0
 13 18  1  0
 14 15  1  0
 14 16  2  0
 15 20  2  0
 16 17  1  0
 17 18  2  0
 19 20  1  0
 20 22  1  0
 21 22  1  0
 21 23  1  0
 23 24  1  0
 23 28  1  0
 24 25  1  0
 25 26  1  0
 26 27  1  0
 27 28  1  0
M  END
>  <ALOGPS_LOGP>  (20) 
3.31

>  <ALOGPS_LOGS>  (20) 
-4.49

>  <ALOGPS_SOLUBILITY>  (20) 
1.31e-02 g/l

>  <DATABASE_NAME>  (20) 
drugbank

>  <DRUGBANK_ID>  (20) 
DB07685

>  <DRUG_GROUPS>  (20) 
experimental

>  <EXACT_MASS>  (20) 
402.14740929

>  <FORMULA>  (20) 
C18H22N6O3S

>  <GENERIC_NAME>  (20) 
4-{[5-(CYCLOHEXYLMETHOXY)[1,2,4]TRIAZOLO[1,5-A]PYRIMIDIN-7-YL]AMINO}BENZENESULFONAMIDE

>  <ID>  (20) 
DT1

>  <INCHI_IDENTIFIER>  (20) 
InChI=1S/C18H22N6O3S/c19-28(25,26)15-8-6-14(7-9-15)22-16-10-17(23-18-20-12-21-24(16)18)27-11-13-4-2-1-3-5-13/h6-10,12-13,22H,1-5,11H2,(H2,19,25,26)

>  <INCHI_KEY>  (20) 
NMAZGYDYIYLSLJ-UHFFFAOYSA-N

>  <INTERNATIONAL_BRANDS>  (20) 
nan

>  <JCHEM_ACCEPTOR_COUNT>  (20) 
7

>  <JCHEM_ATOM_COUNT>  (20) 
nan

>  <JCHEM_AVERAGE_POLARIZABILITY>  (20) 
41.37152838045681

>  <JCHEM_BIOAVAILABILITY>  (20) 
1

>  <JCHEM_DONOR_COUNT>  (20) 
2

>  <JCHEM_FORMAL_CHARGE>  (20) 
0

>  <JCHEM_GHOSE_FILTER>  (20) 
1

>  <JCHEM_IUPAC>  (20) 
4-{[5-(cyclohexylmethoxy)-[1,2,4]triazolo[1,5-a]pyrimidin-7-yl]amino}benzene-1-sulfonamide

>  <JCHEM_LOGP>  (20) 
2.8988696786666663

>  <JCHEM_MDDR_LIKE_RULE>  (20) 
1

>  <JCHEM_NUMBER_OF_RINGS>  (20) 
4

>  <JCHEM_PHYSIOLOGICAL_CHARGE>  (20) 
0

>  <JCHEM_PKA>  (20) 
17.32282126767751

>  <JCHEM_PKA_STRONGEST_ACIDIC>  (20) 
10.758080362697035

>  <JCHEM_PKA_STRONGEST_BASIC>  (20) 
-0.21494347101117206

>  <JCHEM_POLAR_SURFACE_AREA>  (20) 
124.5

>  <JCHEM_REFRACTIVITY>  (20) 
116.024

>  <JCHEM_ROTATABLE_BOND_COUNT>  (20) 
6

>  <JCHEM_RULE_OF_FIVE>  (20) 
1

>  <JCHEM_TRADITIONAL_IUPAC>  (20) 
4-{[5-(cyclohexylmethoxy)-[1,2,4]triazolo[1,5-a]pyrimidin-7-yl]amino}benzenesulfonamide

>  <JCHEM_VEBER_RULE>  (20) 
0

>  <MOLECULAR_WEIGHT>  (20) 
402.471

>  <PRODUCTS>  (20) 
nan

>  <SALTS>  (20) 
nan

>  <SECONDARY_ACCESSION_NUMBERS>  (20) 
nan

>  <SMILES>  (20) 
NS(=O)(=O)C1=CC=C(NC2=CC(OCC3CCCCC3)=NC3=NC=NN23)C=C1

>  <SYNONYMS>  (20) 
nan

>  <ECFP_FP>  (20) 
<rdkit.DataStructs.cDataStructs.ExplicitBitVect object at 0xa26aae7b0>

>  <pki_G>  (20) 
6.172827

>  <pki_D>  (20) 
5.609167

>  <pki_B>  (20) 
5.453443

>  <pki_A>  (20) 
5.376514

>  <SelB>  (20) 
0.719384

>  <SelA>  (20) 
0.796313

>  <SelD>  (20) 
0.56366

>  <AvgABSel>  (20) 
0.757848

>  <MACCS_FP>  (20) 
[0. 0. 0. 0. 0. 0. 0. 0. 0. 0. 0. 0. 0. 0. 0. 0. 0. 0. 0. 0. 0. 0. 0. 0.
 0. 1. 0. 0. 0. 0. 0. 0. 1. 1. 0. 0. 0. 0. 1. 0. 0. 0. 0. 0. 0. 0. 0. 0.
 0. 0. 0. 1. 1. 0. 0. 1. 0. 0. 1. 1. 1. 1. 0. 0. 1. 1. 0. 1. 0. 1. 0. 0.
 0. 1. 0. 0. 0. 1. 0. 1. 1. 1. 0. 1. 1. 0. 0. 0. 1. 0. 0. 0. 1. 0. 1. 0.
 1. 1. 1. 0. 0. 1. 1. 0. 0. 1. 1. 0. 0. 1. 1. 0. 1. 1. 0. 0. 0. 1. 1. 0.
 1. 1. 1. 0. 1. 1. 1. 1. 1. 1. 1. 1. 0. 1. 0. 1. 1. 1. 0. 0. 0. 0. 1. 1.
 0. 1. 1. 1. 1. 0. 0. 1. 0. 1. 0. 1. 1. 1. 1. 1. 0. 1. 1. 1. 1. 1. 0.]

>  <MACCS_pki_G>  (20) 
6.439618

>  <MACCS_pki_D>  (20) 
6.424249

>  <MACCS_pki_B>  (20) 
5.839864

>  <MACCS_pki_A>  (20) 
5.454476

>  <MACCS_SelB>  (20) 
0.599754

>  <MACCS_SelA>  (20) 
0.985142

>  <MACCS_SelD>  (20) 
0.015369

>  <MACCSAvgABSel>  (20) 
0.792448

>  <Pharm2D_FP>  (20) 
[0. 0. 0. ... 0. 0. 0.]

>  <Pharm2D_pki_G>  (20) 
5.83911

>  <Pharm2D_pki_D>  (20) 
5.758666

>  <Pharm2D_pki_B>  (20) 
5.392322

>  <Pharm2D_pki_A>  (20) 
5.348333

>  <Pharm2D_SelB>  (20) 
0.446788

>  <Pharm2D_SelA>  (20) 
0.490777

>  <Pharm2D_SelD>  (20) 
0.080445

>  <Pharm2DAvgABSel>  (20) 
0.468783

>  <QED>  (20) 
0.648722

$$$$
DB04710
     RDKit          2D

 44 45  0  0  1  0  0  0  0  0999 V2000
    4.7902   -1.2696    0.0000 C   0  0  0  0  0  0  0  0  0  0  0  0
    5.5601   -1.5660    0.0000 C   0  0  0  0  0  0  0  0  0  0  0  0
    6.2017   -1.0474    0.0000 O   0  0  0  0  0  0  0  0  0  0  0  0
    6.9717   -1.3437    0.0000 C   0  0  0  0  0  0  0  0  0  0  0  0
    7.1000   -2.1587    0.0000 O   0  0  0  0  0  0  0  0  0  0  0  0
    7.6133   -0.8251    0.0000 C   0  0  0  0  0  0  0  0  0  0  0  0
    8.3832   -1.1214    0.0000 C   0  0  0  0  0  0  0  0  0  0  0  0
    9.0248   -0.6028    0.0000 C   0  0  0  0  0  0  0  0  0  0  0  0
    8.8965    0.2121    0.0000 C   0  0  0  0  0  0  0  0  0  0  0  0
    8.1266    0.5085    0.0000 C   0  0  0  0  0  0  0  0  0  0  0  0
    7.4342    0.0598    0.0000 C   0  0  0  0  0  0  0  0  0  0  0  0
    6.7936    0.5795    0.0000 C   0  0  0  0  0  0  0  0  0  0  0  0
    7.0899    1.3495    0.0000 N   0  0  0  0  0  0  0  0  0  0  0  0
    7.9138    1.3056    0.0000 C   0  0  0  0  0  0  0  0  0  0  0  0
    8.4335    1.9462    0.0000 O   0  0  0  0  0  0  0  0  0  0  0  0
    9.7948   -0.8992    0.0000 N   0  0  0  0  0  0  0  0  0  0  0  0
   10.4364   -0.3806    0.0000 C   0  0  0  0  0  0  0  0  0  0  0  0
   10.3080    0.4344    0.0000 O   0  0  0  0  0  0  0  0  0  0  0  0
   11.2063   -0.6769    0.0000 C   0  0  0  0  0  0  0  0  0  0  0  0
   11.3346   -1.4919    0.0000 C   0  0  0  0  0  0  0  0  0  0  0  0
   10.6930   -2.0105    0.0000 C   0  0  0  0  0  0  0  0  0  0  0  0
   10.8213   -2.8254    0.0000 C   0  0  0  0  0  0  0  0  0  0  0  0
    9.9231   -1.7141    0.0000 C   0  0  0  0  0  0  0  0  0  0  0  0
   11.8479   -0.1583    0.0000 N   0  0  0  0  0  0  0  0  0  0  0  0
   12.6179   -0.4547    0.0000 C   0  0  0  0  0  0  0  0  0  0  0  0
   12.7462   -1.2696    0.0000 O   0  0  0  0  0  0  0  0  0  0  0  0
   13.2595    0.0640    0.0000 C   0  0  0  0  0  0  0  0  0  0  0  0
   14.0294   -0.2324    0.0000 N   0  0  0  0  0  0  0  0  0  0  0  0
   14.6710    0.2862    0.0000 C   0  0  0  0  0  0  0  0  0  0  0  0
   14.5427    1.1012    0.0000 O   0  0  0  0  0  0  0  0  0  0  0  0
   15.4410   -0.0101    0.0000 C   0  0  0  0  0  0  0  0  0  0  0  0
   15.5693   -0.8251    0.0000 C   0  0  0  0  0  0  0  0  0  0  0  0
   16.0826    0.5085    0.0000 N   0  0  0  0  0  0  0  0  0  0  0  0
   16.8525    0.2121    0.0000 C   0  0  0  0  0  0  0  0  0  0  0  0
   17.4941    0.7307    0.0000 O   0  0  0  0  0  0  0  0  0  0  0  0
   16.9808   -0.6028    0.0000 C   0  0  0  0  0  0  0  0  0  0  0  0
   17.7156   -0.9780    0.0000 N   0  0  0  0  0  0  0  0  0  0  0  0
   17.5858   -1.7928    0.0000 O   0  0  0  0  0  0  0  0  0  0  0  0
   16.7708   -1.9211    0.0000 C   0  0  0  0  0  0  0  0  0  0  0  0
   16.3956   -2.6558    0.0000 C   0  0  0  0  0  0  0  0  0  0  0  0
   16.3969   -1.1857    0.0000 C   0  0  0  0  0  0  0  0  0  0  0  0
   13.1311    0.8789    0.0000 C   0  0  0  0  0  0  0  0  0  0  0  0
   13.7728    1.3975    0.0000 C   0  0  0  0  0  0  0  0  0  0  0  0
   12.3612    1.1753    0.0000 C   0  0  0  0  0  0  0  0  0  0  0  0
  1  2  1  0
  2  3  1  0
  3  4  1  0
  4  5  2  0
  4  6  1  0
  6  7  2  0
  8  7  1  6
  8  9  1  0
 10  9  1  6
 10 11  1  0
 11 12  1  0
 12 13  1  0
 13 14  1  0
 10 14  1  0
 14 15  2  0
  8 16  1  0
 16 17  1  0
 17 18  2  0
 17 19  1  0
 19 20  1  1
 20 21  1  0
 21 22  1  0
 21 23  1  0
 19 24  1  0
 24 25  1  0
 25 26  2  0
 25 27  1  0
 27 28  1  6
 28 29  1  0
 29 30  2  0
 29 31  1  0
 31 32  1  1
 31 33  1  0
 33 34  1  0
 34 35  2  0
 34 36  1  0
 36 37  2  0
 37 38  1  0
 38 39  1  0
 39 40  1  0
 39 41  2  0
 36 41  1  0
 27 42  1  0
 42 43  1  0
 42 44  1  0
M  END
>  <ALOGPS_LOGP>  (21) 
1.35

>  <ALOGPS_LOGS>  (21) 
-3.92

>  <ALOGPS_SOLUBILITY>  (21) 
7.44e-02 g/l

>  <DATABASE_NAME>  (21) 
drugbank

>  <DRUGBANK_ID>  (21) 
DB04710

>  <DRUG_GROUPS>  (21) 
experimental

>  <EXACT_MASS>  (21) 
618.337712478

>  <FORMULA>  (21) 
C30H46N6O8

>  <GENERIC_NAME>  (21) 
(E)-(S)-4-[(S)-4-METHYL-2-((S)-3-METHYL-2{(S)-2-[(5-METHYL-ISOXAZOLE-3- CARBONYL)-AMINO]-PROPIONYLAMINO}-BUTYRYLAMINO)-PENTANOYLAMINO]-5-((S)-2- OXO-PYRROLIDIN-3-YL)-PENT-2-ENOIC ACID ETHYL ESTER

>  <ID>  (21) 


>  <INCHI_IDENTIFIER>  (21) 
InChI=1S/C30H46N6O8/c1-8-43-24(37)10-9-21(15-20-11-12-31-27(20)39)33-28(40)22(13-16(2)3)34-30(42)25(17(4)5)35-26(38)19(7)32-29(41)23-14-18(6)44-36-23/h9-10,14,16-17,19-22,25H,8,11-13,15H2,1-7H3,(H,31,39)(H,32,41)(H,33,40)(H,34,42)(H,35,38)/b10-9+/t19-,20-,21+,22-,25-/m0/s1

>  <INCHI_KEY>  (21) 
LIVSSCDUYUOZEL-GLXPMXKMSA-N

>  <INTERNATIONAL_BRANDS>  (21) 
nan

>  <JCHEM_ACCEPTOR_COUNT>  (21) 
7

>  <JCHEM_ATOM_COUNT>  (21) 
nan

>  <JCHEM_AVERAGE_POLARIZABILITY>  (21) 
65.64809748737113

>  <JCHEM_BIOAVAILABILITY>  (21) 
0

>  <JCHEM_DONOR_COUNT>  (21) 
5

>  <JCHEM_FORMAL_CHARGE>  (21) 
0

>  <JCHEM_GHOSE_FILTER>  (21) 
0

>  <JCHEM_IUPAC>  (21) 
ethyl (2E,4S)-4-[(2S)-4-methyl-2-[(2S)-3-methyl-2-[(2S)-2-[(5-methyl-1,2-oxazol-3-yl)formamido]propanamido]butanamido]pentanamido]-5-[(3S)-2-oxopyrrolidin-3-yl]pent-2-enoate

>  <JCHEM_LOGP>  (21) 
0.9726023203333336

>  <JCHEM_MDDR_LIKE_RULE>  (21) 
0

>  <JCHEM_NUMBER_OF_RINGS>  (21) 
2

>  <JCHEM_PHYSIOLOGICAL_CHARGE>  (21) 
0

>  <JCHEM_PKA>  (21) 
12.430025880094728

>  <JCHEM_PKA_STRONGEST_ACIDIC>  (21) 
11.707799918677354

>  <JCHEM_PKA_STRONGEST_BASIC>  (21) 
-0.5354276189070476

>  <JCHEM_POLAR_SURFACE_AREA>  (21) 
197.82999999999998

>  <JCHEM_REFRACTIVITY>  (21) 
161.5812

>  <JCHEM_ROTATABLE_BOND_COUNT>  (21) 
17

>  <JCHEM_RULE_OF_FIVE>  (21) 
0

>  <JCHEM_TRADITIONAL_IUPAC>  (21) 
ethyl (2E,4S)-4-[(2S)-4-methyl-2-[(2S)-3-methyl-2-[(2S)-2-[(5-methyl-1,2-oxazol-3-yl)formamido]propanamido]butanamido]pentanamido]-5-[(3S)-2-oxopyrrolidin-3-yl]pent-2-enoate

>  <JCHEM_VEBER_RULE>  (21) 
0

>  <MOLECULAR_WEIGHT>  (21) 
618.7216

>  <PRODUCTS>  (21) 
nan

>  <SALTS>  (21) 
nan

>  <SECONDARY_ACCESSION_NUMBERS>  (21) 
nan

>  <SMILES>  (21) 
CCOC(=O)\C=C\[C@H](C[C@@H]1CCNC1=O)NC(=O)[C@H](CC(C)C)NC(=O)[C@H](C(C)C)NC(=O)[C@H](C)NC(=O)C1=NOC(C)=C1

>  <SYNONYMS>  (21) 
nan

>  <ECFP_FP>  (21) 
<rdkit.DataStructs.cDataStructs.ExplicitBitVect object at 0xa269a0f80>

>  <pki_G>  (21) 
6.168972

>  <pki_D>  (21) 
5.540734

>  <pki_B>  (21) 
5.398115

>  <pki_A>  (21) 
5.037661

>  <SelB>  (21) 
0.770856

>  <SelA>  (21) 
1.131311

>  <SelD>  (21) 
0.628238

>  <AvgABSel>  (21) 
0.951084

>  <MACCS_FP>  (21) 
[0. 0. 0. 0. 0. 0. 0. 0. 0. 0. 0. 0. 0. 0. 0. 0. 0. 0. 0. 0. 0. 0. 0. 0.
 0. 0. 0. 0. 0. 0. 0. 0. 0. 0. 0. 0. 0. 0. 0. 0. 0. 0. 0. 0. 0. 0. 0. 0.
 0. 0. 0. 0. 0. 0. 1. 0. 0. 1. 0. 0. 0. 0. 0. 0. 0. 1. 0. 0. 0. 0. 0. 1.
 0. 0. 1. 0. 0. 0. 0. 1. 0. 0. 1. 1. 0. 0. 0. 0. 0. 1. 1. 1. 1. 0. 1. 1.
 1. 1. 0. 1. 1. 0. 1. 0. 1. 0. 0. 0. 0. 1. 1. 1. 0. 0. 1. 1. 0. 1. 1. 0.
 1. 1. 0. 1. 1. 0. 1. 1. 1. 1. 0. 1. 0. 0. 0. 0. 1. 1. 1. 0. 1. 1. 1. 1.
 0. 0. 1. 1. 0. 1. 1. 1. 1. 1. 1. 1. 1. 1. 1. 1. 1. 1. 1. 0. 1. 1. 0.]

>  <MACCS_pki_G>  (21) 
5.981656

>  <MACCS_pki_D>  (21) 
5.876843

>  <MACCS_pki_B>  (21) 
5.523013

>  <MACCS_pki_A>  (21) 
5.87656

>  <MACCS_SelB>  (21) 
0.458642

>  <MACCS_SelA>  (21) 
0.105096

>  <MACCS_SelD>  (21) 
0.104813

>  <MACCSAvgABSel>  (21) 
0.281869

>  <Pharm2D_FP>  (21) 
[0. 0. 0. ... 0. 0. 0.]

>  <Pharm2D_pki_G>  (21) 
5.773358

>  <Pharm2D_pki_D>  (21) 
5.655389

>  <Pharm2D_pki_B>  (21) 
5.419245

>  <Pharm2D_pki_A>  (21) 
5.182738

>  <Pharm2D_SelB>  (21) 
0.354112

>  <Pharm2D_SelA>  (21) 
0.59062

>  <Pharm2D_SelD>  (21) 
0.117969

>  <Pharm2DAvgABSel>  (21) 
0.472366

>  <QED>  (21) 
0.131988

$$$$
DB04595
     RDKit          2D

 49 51  0  0  1  0  0  0  0  0999 V2000
   13.3597   -9.2112    0.0000 C   0  0  0  0  0  0  0  0  0  0  0  0
   12.5897   -8.9149    0.0000 C   0  0  0  0  0  0  0  0  0  0  0  0
   12.4614   -8.0999    0.0000 C   0  0  0  0  0  0  0  0  0  0  0  0
   11.9481   -9.4335    0.0000 C   0  0  0  0  0  0  0  0  0  0  0  0
   12.0764  -10.2485    0.0000 C   0  0  0  0  0  0  0  0  0  0  0  0
   11.4348  -10.7671    0.0000 N   0  0  0  0  0  0  0  0  0  0  0  0
   10.6649  -10.4707    0.0000 C   0  0  0  0  0  0  0  0  0  0  0  0
   10.5366   -9.6558    0.0000 O   0  0  0  0  0  0  0  0  0  0  0  0
   10.0233  -10.9893    0.0000 C   0  0  0  0  0  0  0  0  0  0  0  0
    9.2533  -10.6930    0.0000 N   0  0  0  0  0  0  0  0  0  0  0  0
    8.6117  -11.2116    0.0000 C   0  0  0  0  0  0  0  0  0  0  0  0
    8.7400  -12.0265    0.0000 O   0  0  0  0  0  0  0  0  0  0  0  0
    7.8418  -10.9152    0.0000 C   0  0  0  0  0  0  0  0  0  0  0  0
    7.7135  -10.1003    0.0000 C   0  0  0  0  0  0  0  0  0  0  0  0
    7.2002  -11.4338    0.0000 N   0  0  0  0  0  0  0  0  0  0  0  0
    6.4302  -11.1375    0.0000 C   0  0  0  0  0  0  0  0  0  0  0  0
    5.7886  -11.6561    0.0000 O   0  0  0  0  0  0  0  0  0  0  0  0
    6.3019  -10.3225    0.0000 C   0  0  0  0  0  0  0  0  0  0  0  0
    5.5672   -9.9473    0.0000 N   0  0  0  0  0  0  0  0  0  0  0  0
    5.6970   -9.1326    0.0000 O   0  0  0  0  0  0  0  0  0  0  0  0
    6.5119   -9.0043    0.0000 C   0  0  0  0  0  0  0  0  0  0  0  0
    6.8871   -8.2695    0.0000 C   0  0  0  0  0  0  0  0  0  0  0  0
    6.8858   -9.7397    0.0000 C   0  0  0  0  0  0  0  0  0  0  0  0
   10.1516  -11.8043    0.0000 C   0  0  0  0  0  0  0  0  0  0  0  0
    9.5100  -12.3229    0.0000 C   0  0  0  0  0  0  0  0  0  0  0  0
   10.9215  -12.1006    0.0000 C   0  0  0  0  0  0  0  0  0  0  0  0
   12.8464  -10.5448    0.0000 C   0  0  0  0  0  0  0  0  0  0  0  0
   12.9747  -11.3598    0.0000 O   0  0  0  0  0  0  0  0  0  0  0  0
   13.4880  -10.0262    0.0000 N   0  0  0  0  0  0  0  0  0  0  0  0
   14.2579  -10.3225    0.0000 C   0  0  0  0  0  0  0  0  0  0  0  0
   14.3863  -11.1375    0.0000 C   0  0  0  0  0  0  0  0  0  0  0  0
   15.1562  -11.4338    0.0000 C   0  0  0  0  0  0  0  0  0  0  0  0
   15.8485  -10.9851    0.0000 C   0  0  0  0  0  0  0  0  0  0  0  0
   16.4892  -11.5049    0.0000 C   0  0  0  0  0  0  0  0  0  0  0  0
   16.1928  -12.2749    0.0000 N   0  0  0  0  0  0  0  0  0  0  0  0
   15.3690  -12.2309    0.0000 C   0  0  0  0  0  0  0  0  0  0  0  0
   14.8492  -12.8716    0.0000 O   0  0  0  0  0  0  0  0  0  0  0  0
   14.8995   -9.8039    0.0000 C   0  0  0  0  0  0  0  0  0  0  0  0
   15.6695  -10.1003    0.0000 C   0  0  0  0  0  0  0  0  0  0  0  0
   16.3111   -9.5817    0.0000 C   0  0  0  0  0  0  0  0  0  0  0  0
   16.1828   -8.7667    0.0000 O   0  0  0  0  0  0  0  0  0  0  0  0
   17.0810   -9.8780    0.0000 O   0  0  0  0  0  0  0  0  0  0  0  0
   17.7226   -9.3594    0.0000 C   0  0  0  0  0  0  0  0  0  0  0  0
   18.4926   -9.6558    0.0000 C   0  0  0  0  0  0  0  0  0  0  0  0
   19.1342   -9.1371    0.0000 C   0  0  0  0  0  0  0  0  0  0  0  0
   19.9041   -9.4335    0.0000 C   0  0  0  0  0  0  0  0  0  0  0  0
   20.0325  -10.2485    0.0000 C   0  0  0  0  0  0  0  0  0  0  0  0
   19.3908  -10.7671    0.0000 C   0  0  0  0  0  0  0  0  0  0  0  0
   18.6209  -10.4707    0.0000 C   0  0  0  0  0  0  0  0  0  0  0  0
  1  2  1  0
  2  3  1  0
  2  4  1  0
  5  4  1  1
  5  6  1  0
  6  7  1  0
  7  8  2  0
  7  9  1  0
  9 10  1  6
 10 11  1  0
 11 12  2  0
 11 13  1  0
 13 14  1  1
 13 15  1  0
 15 16  1  0
 16 17  2  0
 16 18  1  0
 18 19  2  0
 19 20  1  0
 20 21  1  0
 21 22  1  0
 21 23  2  0
 18 23  1  0
  9 24  1  0
 24 25  1  0
 24 26  1  0
  5 27  1  0
 27 28  2  0
 27 29  1  0
 30 29  1  0
 30 31  1  6
 32 31  1  6
 32 33  1  0
 33 34  1  0
 34 35  1  0
 35 36  1  0
 32 36  1  0
 36 37  2  0
 30 38  1  0
 38 39  2  0
 39 40  1  0
 40 41  2  0
 40 42  1  0
 42 43  1  0
 43 44  1  0
 44 45  2  0
 45 46  1  0
 46 47  2  0
 47 48  1  0
 48 49  2  0
 44 49  1  0
M  END
>  <ALOGPS_LOGP>  (22) 
2.21

>  <ALOGPS_LOGS>  (22) 
-4.24

>  <ALOGPS_SOLUBILITY>  (22) 
3.93e-02 g/l

>  <DATABASE_NAME>  (22) 
drugbank

>  <DRUGBANK_ID>  (22) 
DB04595

>  <DRUG_GROUPS>  (22) 
experimental

>  <EXACT_MASS>  (22) 
680.353362542

>  <FORMULA>  (22) 
C35H48N6O8

>  <GENERIC_NAME>  (22) 
(E)-(4S,6S)-8-METHYL-6-((S)-3-METHYL-2-{(S)-2-[(5-METHYL-ISOXAZOLE-3-CARBONYL)-AMINO]-PROPIONYLAMINO}-BUTYRYLAMINO)-5-OXO-4-((R)-2-OXO-PYRROLIDIN-3-YLMETHYL)-NON-2-ENOIC ACID BENZYL ESTER

>  <ID>  (22) 


>  <INCHI_IDENTIFIER>  (22) 
InChI=1S/C35H48N6O8/c1-20(2)16-27(39-35(47)30(21(3)4)40-31(43)23(6)37-34(46)28-17-22(5)49-41-28)33(45)38-26(18-25-14-15-36-32(25)44)12-13-29(42)48-19-24-10-8-7-9-11-24/h7-13,17,20-21,23,25-27,30H,14-16,18-19H2,1-6H3,(H,36,44)(H,37,46)(H,38,45)(H,39,47)(H,40,43)/b13-12+/t23-,25-,26+,27-,30-/m0/s1

>  <INCHI_KEY>  (22) 
IDBWWEGDLCFCTD-VNEMRZQUSA-N

>  <INTERNATIONAL_BRANDS>  (22) 
nan

>  <JCHEM_ACCEPTOR_COUNT>  (22) 
7

>  <JCHEM_ATOM_COUNT>  (22) 
nan

>  <JCHEM_AVERAGE_POLARIZABILITY>  (22) 
72.01978453684617

>  <JCHEM_BIOAVAILABILITY>  (22) 
0

>  <JCHEM_DONOR_COUNT>  (22) 
5

>  <JCHEM_FORMAL_CHARGE>  (22) 
0

>  <JCHEM_GHOSE_FILTER>  (22) 
0

>  <JCHEM_IUPAC>  (22) 
benzyl (2E,4S)-4-[(2S)-4-methyl-2-[(2S)-3-methyl-2-[(2S)-2-[(5-methyl-1,2-oxazol-3-yl)formamido]propanamido]butanamido]pentanamido]-5-[(3S)-2-oxopyrrolidin-3-yl]pent-2-enoate

>  <JCHEM_LOGP>  (22) 
2.340267483

>  <JCHEM_MDDR_LIKE_RULE>  (22) 
1

>  <JCHEM_NUMBER_OF_RINGS>  (22) 
3

>  <JCHEM_PHYSIOLOGICAL_CHARGE>  (22) 
0

>  <JCHEM_PKA>  (22) 
12.43184943442311

>  <JCHEM_PKA_STRONGEST_ACIDIC>  (22) 
11.710732863710767

>  <JCHEM_PKA_STRONGEST_BASIC>  (22) 
-0.5354276189090853

>  <JCHEM_POLAR_SURFACE_AREA>  (22) 
197.82999999999998

>  <JCHEM_REFRACTIVITY>  (22) 
181.4452

>  <JCHEM_ROTATABLE_BOND_COUNT>  (22) 
18

>  <JCHEM_RULE_OF_FIVE>  (22) 
0

>  <JCHEM_TRADITIONAL_IUPAC>  (22) 
benzyl (2E,4S)-4-[(2S)-4-methyl-2-[(2S)-3-methyl-2-[(2S)-2-[(5-methyl-1,2-oxazol-3-yl)formamido]propanamido]butanamido]pentanamido]-5-[(3S)-2-oxopyrrolidin-3-yl]pent-2-enoate

>  <JCHEM_VEBER_RULE>  (22) 
0

>  <MOLECULAR_WEIGHT>  (22) 
680.791

>  <PRODUCTS>  (22) 
nan

>  <SALTS>  (22) 
nan

>  <SECONDARY_ACCESSION_NUMBERS>  (22) 
nan

>  <SMILES>  (22) 
CC(C)C[C@H](NC(=O)[C@H](C(C)C)NC(=O)[C@H](C)NC(=O)C1=NOC(C)=C1)C(=O)N[C@H](\C=C\C(=O)OCC1=CC=CC=C1)C[C@@H]1CCNC1=O

>  <SYNONYMS>  (22) 
nan

>  <ECFP_FP>  (22) 
<rdkit.DataStructs.cDataStructs.ExplicitBitVect object at 0xa26994490>

>  <pki_G>  (22) 
6.168972

>  <pki_D>  (22) 
5.582982

>  <pki_B>  (22) 
5.407556

>  <pki_A>  (22) 
5.371737

>  <SelB>  (22) 
0.761415

>  <SelA>  (22) 
0.797235

>  <SelD>  (22) 
0.58599

>  <AvgABSel>  (22) 
0.779325

>  <MACCS_FP>  (22) 
[0. 0. 0. 0. 0. 0. 0. 0. 0. 0. 0. 0. 0. 0. 0. 0. 0. 0. 0. 0. 0. 0. 0. 0.
 0. 0. 0. 0. 0. 0. 0. 0. 0. 0. 0. 0. 0. 0. 0. 0. 0. 0. 0. 0. 0. 0. 0. 0.
 0. 0. 0. 0. 0. 0. 1. 0. 0. 1. 0. 0. 0. 0. 0. 0. 0. 1. 0. 0. 0. 0. 0. 1.
 0. 0. 1. 0. 0. 0. 0. 1. 0. 0. 1. 1. 0. 0. 0. 0. 0. 1. 1. 1. 1. 0. 1. 1.
 1. 1. 0. 1. 1. 0. 1. 0. 1. 0. 0. 0. 0. 1. 1. 1. 0. 0. 0. 1. 0. 1. 1. 0.
 1. 1. 0. 1. 1. 1. 1. 1. 1. 1. 0. 1. 0. 0. 0. 0. 1. 1. 1. 0. 1. 1. 1. 1.
 0. 0. 1. 1. 0. 1. 1. 1. 1. 1. 1. 1. 1. 1. 1. 1. 1. 1. 1. 1. 1. 1. 0.]

>  <MACCS_pki_G>  (22) 
5.94097

>  <MACCS_pki_D>  (22) 
5.876843

>  <MACCS_pki_B>  (22) 
5.523013

>  <MACCS_pki_A>  (22) 
5.87656

>  <MACCS_SelB>  (22) 
0.417957

>  <MACCS_SelA>  (22) 
0.06441

>  <MACCS_SelD>  (22) 
0.064128

>  <MACCSAvgABSel>  (22) 
0.241183

>  <Pharm2D_FP>  (22) 
[0. 0. 0. ... 0. 0. 0.]

>  <Pharm2D_pki_G>  (22) 
5.788259

>  <Pharm2D_pki_D>  (22) 
5.653755

>  <Pharm2D_pki_B>  (22) 
5.431102

>  <Pharm2D_pki_A>  (22) 
5.154071

>  <Pharm2D_SelB>  (22) 
0.357156

>  <Pharm2D_SelA>  (22) 
0.634187

>  <Pharm2D_SelD>  (22) 
0.134504

>  <Pharm2DAvgABSel>  (22) 
0.495672

>  <QED>  (22) 
0.122694

$$$$
DB08455
     RDKit          2D

 23 23  0  0  0  0  0  0  0  0999 V2000
   -2.8579    0.8250    0.0000 C   0  0  0  0  0  0  0  0  0  0  0  0
   -4.2868    3.3000    0.0000 C   0  0  0  0  0  0  0  0  0  0  0  0
    0.7145    2.0625    0.0000 C   0  0  0  0  0  0  0  0  0  0  0  0
   -0.7145   -0.4125    0.0000 C   0  0  0  0  0  0  0  0  0  0  0  0
    0.7145   -1.2375    0.0000 C   0  0  0  0  0  0  0  0  0  0  0  0
   -2.8579    2.4750    0.0000 C   0  0  0  0  0  0  0  0  0  0  0  0
   -2.1434    2.0625    0.0000 C   0  0  0  0  0  0  0  0  0  0  0  0
   -2.8579    3.3000    0.0000 C   0  0  0  0  0  0  0  0  0  0  0  0
   -1.4289    0.8250    0.0000 C   0  0  0  0  0  0  0  0  0  0  0  0
   -0.7145    1.2375    0.0000 C   0  0  0  0  0  0  0  0  0  0  0  0
   -3.5724    4.5375    0.0000 C   0  0  0  0  0  0  0  0  0  0  0  0
    1.4289    0.8250    0.0000 C   0  0  0  0  0  0  0  0  0  0  0  0
   -2.1434    1.2375    0.0000 C   0  0  0  0  0  0  0  0  0  0  0  0
   -3.5724    3.7125    0.0000 C   0  0  0  0  0  0  0  0  0  0  0  0
    0.7145    1.2375    0.0000 C   0  0  0  0  0  0  0  0  0  0  0  0
    0.0000    0.0000    0.0000 C   0  0  0  0  0  0  0  0  0  0  0  0
    0.7145   -0.4125    0.0000 C   0  0  0  0  0  0  0  0  0  0  0  0
    0.0000    0.8250    0.0000 C   0  0  0  0  0  0  0  0  0  0  0  0
    1.4289   -0.0000    0.0000 C   0  0  0  0  0  0  0  0  0  0  0  0
   -4.2868    4.9500    0.0000 C   0  0  0  0  0  0  0  0  0  0  0  0
    2.1434   -0.4125    0.0000 O   0  0  0  0  0  0  0  0  0  0  0  0
   -5.0013    4.5375    0.0000 O   0  0  0  0  0  0  0  0  0  0  0  0
   -4.2868    5.7750    0.0000 O   0  0  0  0  0  0  0  0  0  0  0  0
  7  6  1  0
  8  6  2  0
 10  9  2  0
 13  1  1  0
 13  7  2  0
 13  9  1  0
 14  2  1  0
 14  8  1  0
 14 11  2  0
 15  3  1  0
 15 12  2  0
 16  4  1  0
 17  5  1  0
 17 16  1  0
 18 10  1  0
 18 15  1  0
 18 16  2  0
 19 12  1  0
 19 17  2  0
 20 11  1  0
 21 19  1  0
 22 20  2  0
 23 20  1  0
M  END
>  <ALOGPS_LOGP>  (23) 
5.6

>  <ALOGPS_LOGS>  (23) 
-5.42

>  <ALOGPS_SOLUBILITY>  (23) 
1.19e-03 g/l

>  <DATABASE_NAME>  (23) 
drugbank

>  <DRUGBANK_ID>  (23) 
DB08455

>  <DRUG_GROUPS>  (23) 
experimental

>  <EXACT_MASS>  (23) 
312.172544634

>  <FORMULA>  (23) 
C20H24O3

>  <GENERIC_NAME>  (23) 
Ro 12-7310

>  <ID>  (23) 


>  <INCHI_IDENTIFIER>  (23) 
InChI=1S/C20H24O3/c1-13(7-6-8-14(2)11-20(22)23)9-10-18-15(3)12-19(21)17(5)16(18)4/h6-12,21H,1-5H3,(H,22,23)/b8-6+,10-9+,13-7+,14-11+

>  <INCHI_KEY>  (23) 
CAAFTBWHFUPDGX-OFCLTBKTSA-N

>  <INTERNATIONAL_BRANDS>  (23) 
nan

>  <JCHEM_ACCEPTOR_COUNT>  (23) 
3

>  <JCHEM_ATOM_COUNT>  (23) 
nan

>  <JCHEM_AVERAGE_POLARIZABILITY>  (23) 
36.51775184247729

>  <JCHEM_BIOAVAILABILITY>  (23) 
1

>  <JCHEM_DONOR_COUNT>  (23) 
2

>  <JCHEM_FORMAL_CHARGE>  (23) 
0

>  <JCHEM_GHOSE_FILTER>  (23) 
1

>  <JCHEM_IUPAC>  (23) 
(2E,4E,6E,8E)-9-(4-hydroxy-2,3,6-trimethylphenyl)-3,7-dimethylnona-2,4,6,8-tetraenoic acid

>  <JCHEM_LOGP>  (23) 
5.441154669666666

>  <JCHEM_MDDR_LIKE_RULE>  (23) 
0

>  <JCHEM_NUMBER_OF_RINGS>  (23) 
1

>  <JCHEM_PHYSIOLOGICAL_CHARGE>  (23) 
-1

>  <JCHEM_PKA>  (23) 
10.05349924917473

>  <JCHEM_PKA_STRONGEST_ACIDIC>  (23) 
5.012573845264689

>  <JCHEM_PKA_STRONGEST_BASIC>  (23) 
-5.936110717812235

>  <JCHEM_POLAR_SURFACE_AREA>  (23) 
57.53

>  <JCHEM_REFRACTIVITY>  (23) 
99.68419999999998

>  <JCHEM_ROTATABLE_BOND_COUNT>  (23) 
5

>  <JCHEM_RULE_OF_FIVE>  (23) 
0

>  <JCHEM_TRADITIONAL_IUPAC>  (23) 
(2E,4E,6E,8E)-9-(4-hydroxy-2,3,6-trimethylphenyl)-3,7-dimethylnona-2,4,6,8-tetraenoic acid

>  <JCHEM_VEBER_RULE>  (23) 
0

>  <MOLECULAR_WEIGHT>  (23) 
312.4028

>  <PRODUCTS>  (23) 
nan

>  <SALTS>  (23) 
nan

>  <SECONDARY_ACCESSION_NUMBERS>  (23) 
nan

>  <SMILES>  (23) 
[H]/C(=C(/[H])\C(\C)=C(/[H])C(O)=O)/C(/[H])=C(\C)/C(/[H])=C(\[H])C1=C(C)C=C(O)C(C)=C1C

>  <SYNONYMS>  (23) 
(2E,4E,6E,8E)-9-(4-Hydroxy-2,3,6-trimethylphenyl)-3,7-dimethyl-2,4,6,8-nonatetraenoic acid

>  <ECFP_FP>  (23) 
<rdkit.DataStructs.cDataStructs.ExplicitBitVect object at 0xa26b21c60>

>  <pki_G>  (23) 
6.159652

>  <pki_D>  (23) 
5.584249

>  <pki_B>  (23) 
5.451686

>  <pki_A>  (23) 
5.385262

>  <SelB>  (23) 
0.707966

>  <SelA>  (23) 
0.77439

>  <SelD>  (23) 
0.575403

>  <AvgABSel>  (23) 
0.741178

>  <MACCS_FP>  (23) 
[0. 0. 0. 0. 0. 0. 0. 0. 0. 0. 0. 0. 0. 0. 0. 0. 0. 0. 0. 0. 0. 0. 0. 0.
 0. 0. 0. 0. 0. 0. 0. 0. 0. 0. 0. 0. 0. 0. 0. 0. 0. 0. 0. 0. 0. 0. 0. 0.
 0. 0. 1. 0. 0. 0. 0. 0. 0. 0. 0. 0. 0. 0. 0. 0. 0. 0. 0. 0. 0. 0. 0. 0.
 0. 0. 0. 0. 1. 0. 0. 0. 0. 0. 0. 0. 0. 0. 0. 0. 0. 0. 0. 0. 0. 0. 0. 0.
 0. 0. 0. 1. 0. 0. 0. 0. 0. 0. 0. 0. 0. 0. 0. 0. 0. 1. 0. 0. 0. 0. 0. 0.
 0. 0. 0. 1. 0. 0. 0. 1. 0. 0. 0. 1. 0. 0. 0. 0. 0. 0. 0. 1. 0. 1. 0. 1.
 1. 0. 1. 0. 0. 1. 1. 0. 1. 0. 1. 0. 0. 1. 0. 1. 1. 0. 1. 1. 1. 1. 0.]

>  <MACCS_pki_G>  (23) 
5.724575

>  <MACCS_pki_D>  (23) 
5.812189

>  <MACCS_pki_B>  (23) 
5.713753

>  <MACCS_pki_A>  (23) 
5.731207

>  <MACCS_SelB>  (23) 
0.010822

>  <MACCS_SelA>  (23) 
-0.006632

>  <MACCS_SelD>  (23) 
-0.087614

>  <MACCSAvgABSel>  (23) 
0.002095

>  <Pharm2D_FP>  (23) 
[0. 0. 0. ... 0. 0. 0.]

>  <Pharm2D_pki_G>  (23) 
5.825474

>  <Pharm2D_pki_D>  (23) 
5.546877

>  <Pharm2D_pki_B>  (23) 
5.338176

>  <Pharm2D_pki_A>  (23) 
4.925071

>  <Pharm2D_SelB>  (23) 
0.487298

>  <Pharm2D_SelA>  (23) 
0.900402

>  <Pharm2D_SelD>  (23) 
0.278596

>  <Pharm2DAvgABSel>  (23) 
0.69385

>  <QED>  (23) 
0.602499

$$$$
DB08749
     RDKit          2D

 31 34  0  0  0  0  0  0  0  0999 V2000
   -2.0848   -0.9602    0.0000 C   0  0  0  0  0  0  0  0  0  0  0  0
   -2.0848   -0.1352    0.0000 N   0  0  0  0  0  0  0  0  0  0  0  0
   -1.3703    0.2773    0.0000 C   0  0  0  0  0  0  0  0  0  0  0  0
   -1.3703    1.1023    0.0000 O   0  0  0  0  0  0  0  0  0  0  0  0
   -0.6559   -0.1352    0.0000 C   0  0  0  0  0  0  0  0  0  0  0  0
    0.0586    0.2773    0.0000 C   0  0  0  0  0  0  0  0  0  0  0  0
    0.7731   -0.1352    0.0000 N   0  0  0  0  0  0  0  0  0  0  0  0
    1.4876    0.2773    0.0000 C   0  0  0  0  0  0  0  0  0  0  0  0
    2.2020   -0.1352    0.0000 C   0  0  0  0  0  0  0  0  0  0  0  0
    2.9165    0.2773    0.0000 C   0  0  0  0  0  0  0  0  0  0  0  0
    3.6310   -0.1352    0.0000 C   0  0  0  0  0  0  0  0  0  0  0  0
    4.3454    0.2773    0.0000 C   0  0  0  0  0  0  0  0  0  0  0  0
    4.3454    1.1023    0.0000 O   0  0  0  0  0  0  0  0  0  0  0  0
    5.0599   -0.1352    0.0000 C   0  0  0  0  0  0  0  0  0  0  0  0
    5.7744    0.2773    0.0000 C   0  0  0  0  0  0  0  0  0  0  0  0
    6.4889   -0.1352    0.0000 C   0  0  0  0  0  0  0  0  0  0  0  0
    6.4889   -0.9602    0.0000 C   0  0  0  0  0  0  0  0  0  0  0  0
    5.7744   -1.3727    0.0000 C   0  0  0  0  0  0  0  0  0  0  0  0
    5.0599   -0.9602    0.0000 C   0  0  0  0  0  0  0  0  0  0  0  0
    3.6310   -0.9602    0.0000 C   0  0  0  0  0  0  0  0  0  0  0  0
    2.9165   -1.3727    0.0000 C   0  0  0  0  0  0  0  0  0  0  0  0
    2.2020   -0.9602    0.0000 C   0  0  0  0  0  0  0  0  0  0  0  0
    1.4876   -1.3727    0.0000 N   0  0  0  0  0  0  0  0  0  0  0  0
    0.7731   -0.9602    0.0000 C   0  0  0  0  0  0  0  0  0  0  0  0
    0.0586   -1.3727    0.0000 N   0  0  0  0  0  0  0  0  0  0  0  0
   -2.7993    0.2773    0.0000 C   0  0  0  0  0  0  0  0  0  0  0  0
   -3.5137   -0.1352    0.0000 C   0  0  0  0  0  0  0  0  0  0  0  0
   -4.2282    0.2773    0.0000 C   0  0  0  0  0  0  0  0  0  0  0  0
   -4.2282    1.1023    0.0000 C   0  0  0  0  0  0  0  0  0  0  0  0
   -3.5137    1.5148    0.0000 C   0  0  0  0  0  0  0  0  0  0  0  0
   -2.7993    1.1023    0.0000 C   0  0  0  0  0  0  0  0  0  0  0  0
  1  2  1  0
  2 26  1  0
  2  3  1  0
  3  4  2  0
  3  5  1  0
  5  6  1  0
  6  7  1  0
  7 24  1  0
  7  8  1  0
  8  9  1  0
  9 10  2  0
  9 22  1  0
 10 11  1  0
 11 12  1  0
 11 20  2  0
 12 14  1  0
 12 13  2  0
 14 15  2  0
 14 19  1  0
 15 16  1  0
 16 17  2  0
 17 18  1  0
 18 19  2  0
 20 21  1  0
 21 22  2  0
 22 23  1  0
 23 24  2  0
 24 25  1  0
 26 27  1  0
 26 31  1  0
 27 28  1  0
 28 29  1  0
 29 30  1  0
 30 31  1  0
M  END
>  <ALOGPS_LOGP>  (24) 
3.21

>  <ALOGPS_LOGS>  (24) 
-4.24

>  <ALOGPS_SOLUBILITY>  (24) 
2.42e-02 g/l

>  <DATABASE_NAME>  (24) 
drugbank

>  <DRUGBANK_ID>  (24) 
DB08749

>  <DRUG_GROUPS>  (24) 
experimental

>  <EXACT_MASS>  (24) 
418.236876224

>  <FORMULA>  (24) 
C25H30N4O2

>  <GENERIC_NAME>  (24) 
3-(2-AMINO-6-BENZOYLQUINAZOLIN-3(4H)-YL)-N-CYCLOHEXYL-N-METHYLPROPANAMIDE

>  <ID>  (24) 
XX4

>  <INCHI_IDENTIFIER>  (24) 
InChI=1S/C25H30N4O2/c1-28(21-10-6-3-7-11-21)23(30)14-15-29-17-20-16-19(12-13-22(20)27-25(29)26)24(31)18-8-4-2-5-9-18/h2,4-5,8-9,12-13,16,21H,3,6-7,10-11,14-15,17H2,1H3,(H2,26,27)

>  <INCHI_KEY>  (24) 
KTRFBFMYAJOXLG-UHFFFAOYSA-N

>  <INTERNATIONAL_BRANDS>  (24) 
nan

>  <JCHEM_ACCEPTOR_COUNT>  (24) 
5

>  <JCHEM_ATOM_COUNT>  (24) 
nan

>  <JCHEM_AVERAGE_POLARIZABILITY>  (24) 
47.710787364189116

>  <JCHEM_BIOAVAILABILITY>  (24) 
1

>  <JCHEM_DONOR_COUNT>  (24) 
1

>  <JCHEM_FORMAL_CHARGE>  (24) 
0

>  <JCHEM_GHOSE_FILTER>  (24) 
1

>  <JCHEM_IUPAC>  (24) 
3-(2-amino-6-benzoyl-3,4-dihydroquinazolin-3-yl)-N-cyclohexyl-N-methylpropanamide

>  <JCHEM_LOGP>  (24) 
3.350433270333334

>  <JCHEM_MDDR_LIKE_RULE>  (24) 
1

>  <JCHEM_NUMBER_OF_RINGS>  (24) 
4

>  <JCHEM_PHYSIOLOGICAL_CHARGE>  (24) 
1

>  <JCHEM_PKA>  (24) 
nan

>  <JCHEM_PKA_STRONGEST_ACIDIC>  (24) 
nan

>  <JCHEM_PKA_STRONGEST_BASIC>  (24) 
9.025667428278314

>  <JCHEM_POLAR_SURFACE_AREA>  (24) 
79

>  <JCHEM_REFRACTIVITY>  (24) 
124.74560000000002

>  <JCHEM_ROTATABLE_BOND_COUNT>  (24) 
6

>  <JCHEM_RULE_OF_FIVE>  (24) 
1

>  <JCHEM_TRADITIONAL_IUPAC>  (24) 
3-(2-amino-6-benzoyl-4H-quinazolin-3-yl)-N-cyclohexyl-N-methylpropanamide

>  <JCHEM_VEBER_RULE>  (24) 
0

>  <MOLECULAR_WEIGHT>  (24) 
418.5313

>  <PRODUCTS>  (24) 
nan

>  <SALTS>  (24) 
nan

>  <SECONDARY_ACCESSION_NUMBERS>  (24) 
nan

>  <SMILES>  (24) 
CN(C1CCCCC1)C(=O)CCN1CC2=CC(=CC=C2N=C1N)C(=O)C1=CC=CC=C1

>  <SYNONYMS>  (24) 
nan

>  <ECFP_FP>  (24) 
<rdkit.DataStructs.cDataStructs.ExplicitBitVect object at 0xa26b50940>

>  <pki_G>  (24) 
6.157787

>  <pki_D>  (24) 
5.644117

>  <pki_B>  (24) 
5.431225

>  <pki_A>  (24) 
5.479506

>  <SelB>  (24) 
0.726562

>  <SelA>  (24) 
0.678281

>  <SelD>  (24) 
0.51367

>  <AvgABSel>  (24) 
0.702422

>  <MACCS_FP>  (24) 
[0. 0. 0. 0. 0. 0. 0. 0. 0. 0. 0. 0. 0. 0. 0. 0. 0. 0. 0. 0. 0. 0. 0. 0.
 0. 1. 0. 0. 0. 0. 0. 0. 0. 0. 0. 0. 0. 0. 0. 0. 0. 0. 0. 0. 0. 0. 0. 0.
 0. 0. 0. 0. 0. 0. 0. 0. 0. 0. 0. 0. 0. 0. 0. 0. 0. 0. 0. 0. 0. 0. 0. 0.
 0. 0. 0. 1. 0. 1. 1. 0. 1. 0. 0. 0. 1. 1. 1. 0. 0. 0. 1. 1. 1. 1. 0. 0.
 0. 1. 1. 0. 1. 1. 0. 0. 0. 1. 1. 0. 1. 0. 1. 1. 0. 0. 0. 0. 1. 1. 1. 1.
 1. 1. 1. 0. 0. 1. 0. 0. 1. 1. 0. 0. 1. 1. 0. 1. 1. 1. 1. 0. 0. 0. 1. 0.
 1. 1. 0. 1. 1. 0. 1. 1. 1. 1. 1. 1. 1. 0. 1. 1. 1. 1. 1. 1. 1. 1. 0.]

>  <MACCS_pki_G>  (24) 
5.974178

>  <MACCS_pki_D>  (24) 
6.020623

>  <MACCS_pki_B>  (24) 
5.455627

>  <MACCS_pki_A>  (24) 
5.781143

>  <MACCS_SelB>  (24) 
0.518551

>  <MACCS_SelA>  (24) 
0.193035

>  <MACCS_SelD>  (24) 
-0.046445

>  <MACCSAvgABSel>  (24) 
0.355793

>  <Pharm2D_FP>  (24) 
[0. 0. 0. ... 0. 0. 0.]

>  <Pharm2D_pki_G>  (24) 
5.745928

>  <Pharm2D_pki_D>  (24) 
5.762844

>  <Pharm2D_pki_B>  (24) 
5.391567

>  <Pharm2D_pki_A>  (24) 
5.193763

>  <Pharm2D_SelB>  (24) 
0.354362

>  <Pharm2D_SelA>  (24) 
0.552165

>  <Pharm2D_SelD>  (24) 
-0.016915

>  <Pharm2DAvgABSel>  (24) 
0.453264

>  <QED>  (24) 
0.722711

$$$$
DB05102
     RDKit          2D

 43 45  0  0  1  0  0  0  0  0999 V2000
    4.5080   -4.3480    0.0000 F   0  0  0  0  0  0  0  0  0  0  0  0
    6.6746    2.8947    0.0000 O   0  0  0  0  0  0  0  0  0  0  0  0
    5.9370    0.6021    0.0000 O   0  0  0  0  0  0  0  0  0  0  0  0
    6.6515    0.1896    0.0000 O   0  0  0  0  0  0  0  0  0  0  0  0
    2.3645    2.6646    0.0000 O   0  0  0  0  0  0  0  0  0  0  0  0
    8.7949   -1.8730    0.0000 O   0  0  0  0  0  0  0  0  0  0  0  0
    1.6500    1.4271    0.0000 O   0  0  0  0  0  0  0  0  0  0  0  0
   10.8152   -0.3579    0.0000 O   0  0  0  0  0  0  0  0  0  0  0  0
    5.6350    3.9342    0.0000 N   0  0  0  0  0  0  0  0  0  0  0  0
    4.5080    0.6021    0.0000 N   0  0  0  0  0  0  0  0  0  0  0  0
    8.0804   -0.6354    0.0000 N   0  0  0  0  0  0  0  0  0  0  0  0
   10.2631   -0.9710    0.0000 N   0  0  0  0  0  0  0  0  0  0  0  0
    5.2224    2.6646    0.0000 C   0  0  0  0  0  0  0  0  0  0  0  0
    5.2224    1.8396    0.0000 C   0  0  0  0  0  0  0  0  0  0  0  0
    4.5550    3.1496    0.0000 C   0  0  0  0  0  0  0  0  0  0  0  0
    4.5080    1.4271    0.0000 C   0  0  0  0  0  0  0  0  0  0  0  0
    4.8099    3.9342    0.0000 C   0  0  0  0  0  0  0  0  0  0  0  0
    5.8899    3.1496    0.0000 C   0  0  0  0  0  0  0  0  0  0  0  0
    5.2224   -0.6354    0.0000 C   0  0  0  0  0  0  0  0  0  0  0  0
    5.9370   -1.0479    0.0000 C   0  0  0  0  0  0  0  0  0  0  0  0
    5.2224    0.1896    0.0000 C   0  0  0  0  0  0  0  0  0  0  0  0
    7.3659   -1.0479    0.0000 C   0  0  0  0  0  0  0  0  0  0  0  0
    4.5080   -1.0479    0.0000 C   0  0  0  0  0  0  0  0  0  0  0  0
    7.3659   -1.8730    0.0000 C   0  0  0  0  0  0  0  0  0  0  0  0
    6.6515   -0.6354    0.0000 C   0  0  0  0  0  0  0  0  0  0  0  0
    3.7935    1.8396    0.0000 C   0  0  0  0  0  0  0  0  0  0  0  0
    4.5080   -1.8730    0.0000 C   0  0  0  0  0  0  0  0  0  0  0  0
    6.6515   -2.2855    0.0000 C   0  0  0  0  0  0  0  0  0  0  0  0
    8.0804   -2.2855    0.0000 C   0  0  0  0  0  0  0  0  0  0  0  0
    3.0791    1.4271    0.0000 C   0  0  0  0  0  0  0  0  0  0  0  0
    5.2224   -2.2855    0.0000 C   0  0  0  0  0  0  0  0  0  0  0  0
    3.7935   -2.2855    0.0000 C   0  0  0  0  0  0  0  0  0  0  0  0
    8.7949   -1.0479    0.0000 C   0  0  0  0  0  0  0  0  0  0  0  0
    2.3645    1.8396    0.0000 C   0  0  0  0  0  0  0  0  0  0  0  0
    5.2224   -3.1105    0.0000 C   0  0  0  0  0  0  0  0  0  0  0  0
    3.7935   -3.1105    0.0000 C   0  0  0  0  0  0  0  0  0  0  0  0
    9.5094   -0.6354    0.0000 C   0  0  0  0  0  0  0  0  0  0  0  0
    4.5080   -3.5230    0.0000 C   0  0  0  0  0  0  0  0  0  0  0  0
    9.5956    0.1851    0.0000 C   0  0  0  0  0  0  0  0  0  0  0  0
   10.4027    0.3566    0.0000 C   0  0  0  0  0  0  0  0  0  0  0  0
    1.6500    3.0772    0.0000 C   0  0  0  0  0  0  0  0  0  0  0  0
   10.7382    1.1103    0.0000 C   0  0  0  0  0  0  0  0  0  0  0  0
    1.6500    3.9022    0.0000 C   0  0  0  0  0  0  0  0  0  0  0  0
  1 38  1  0
  2 18  2  0
  3 21  2  0
  4 25  2  0
  5 34  1  0
  5 41  1  0
  6 33  2  0
  7 34  2  0
  8 12  1  0
  8 40  1  0
  9 17  1  0
  9 18  1  0
 16 10  1  0
 10 21  1  0
 22 11  1  1
 11 33  1  0
 12 37  2  0
 13 14  1  6
 13 15  1  0
 13 18  1  0
 16 14  1  6
 15 17  1  0
 16 26  1  0
 19 20  1  1
 19 21  1  0
 19 23  1  0
 20 25  1  0
 22 24  1  0
 22 25  1  0
 23 27  1  0
 24 28  1  0
 24 29  1  0
 26 30  2  0
 27 31  2  0
 27 32  1  0
 30 34  1  0
 31 35  1  0
 32 36  2  0
 33 37  1  0
 35 38  2  0
 36 38  1  0
 37 39  1  0
 39 40  2  0
 40 42  1  0
 41 43  1  0
M  END
>  <ALOGPS_LOGP>  (25) 
2.43

>  <ALOGPS_LOGS>  (25) 
-4.29

>  <ALOGPS_SOLUBILITY>  (25) 
3.06e-02 g/l

>  <DATABASE_NAME>  (25) 
drugbank

>  <DRUGBANK_ID>  (25) 
DB05102

>  <DRUG_GROUPS>  (25) 
investigational

>  <EXACT_MASS>  (25) 
598.280277827

>  <FORMULA>  (25) 
C31H39FN4O7

>  <GENERIC_NAME>  (25) 
Rupintrivir

>  <ID>  (25) 


>  <INCHI_IDENTIFIER>  (25) 
InChI=1S/C31H39FN4O7/c1-5-42-27(38)11-10-24(16-21-12-13-33-29(21)39)34-30(40)22(15-20-6-8-23(32)9-7-20)17-26(37)28(18(2)3)35-31(41)25-14-19(4)43-36-25/h6-11,14,18,21-22,24,28H,5,12-13,15-17H2,1-4H3,(H,33,39)(H,34,40)(H,35,41)/b11-10+/t21-,22+,24+,28-/m0/s1

>  <INCHI_KEY>  (25) 
CAYJBRBGZBCZKO-BHGBQCOSSA-N

>  <INTERNATIONAL_BRANDS>  (25) 
nan

>  <JCHEM_ACCEPTOR_COUNT>  (25) 
6

>  <JCHEM_ATOM_COUNT>  (25) 
nan

>  <JCHEM_AVERAGE_POLARIZABILITY>  (25) 
62.48471244498927

>  <JCHEM_BIOAVAILABILITY>  (25) 
0

>  <JCHEM_DONOR_COUNT>  (25) 
3

>  <JCHEM_FORMAL_CHARGE>  (25) 
0

>  <JCHEM_GHOSE_FILTER>  (25) 
0

>  <JCHEM_IUPAC>  (25) 
ethyl (2E,4S)-4-[(2R,5S)-2-[(4-fluorophenyl)methyl]-6-methyl-5-[(5-methyl-1,2-oxazol-3-yl)formamido]-4-oxoheptanamido]-5-[(3S)-2-oxopyrrolidin-3-yl]pent-2-enoate

>  <JCHEM_LOGP>  (25) 
3.2100792806666645

>  <JCHEM_MDDR_LIKE_RULE>  (25) 
1

>  <JCHEM_NUMBER_OF_RINGS>  (25) 
3

>  <JCHEM_PHYSIOLOGICAL_CHARGE>  (25) 
0

>  <JCHEM_PKA>  (25) 
13.916494468519293

>  <JCHEM_PKA_STRONGEST_ACIDIC>  (25) 
12.494106532926793

>  <JCHEM_PKA_STRONGEST_BASIC>  (25) 
0.03496561468529347

>  <JCHEM_POLAR_SURFACE_AREA>  (25) 
156.7

>  <JCHEM_REFRACTIVITY>  (25) 
157.2441

>  <JCHEM_ROTATABLE_BOND_COUNT>  (25) 
16

>  <JCHEM_RULE_OF_FIVE>  (25) 
0

>  <JCHEM_TRADITIONAL_IUPAC>  (25) 
ethyl (2E,4S)-4-[(2R,5S)-2-[(4-fluorophenyl)methyl]-6-methyl-5-[(5-methyl-1,2-oxazol-3-yl)formamido]-4-oxoheptanamido]-5-[(3S)-2-oxopyrrolidin-3-yl]pent-2-enoate

>  <JCHEM_VEBER_RULE>  (25) 
0

>  <MOLECULAR_WEIGHT>  (25) 
598.6624

>  <PRODUCTS>  (25) 
nan

>  <SALTS>  (25) 
nan

>  <SECONDARY_ACCESSION_NUMBERS>  (25) 
nan

>  <SMILES>  (25) 
CCOC(=O)\C=C\[C@H](C[C@@H]1CCNC1=O)NC(=O)[C@@H](CC(=O)[C@H](C(C)C)NC(=O)C1=NOC(C)=C1)CC1=CC=C(F)C=C1

>  <SYNONYMS>  (25) 
nan

>  <ECFP_FP>  (25) 
<rdkit.DataStructs.cDataStructs.ExplicitBitVect object at 0xa269c7bc0>

>  <pki_G>  (25) 
6.151766

>  <pki_D>  (25) 
5.561111

>  <pki_B>  (25) 
5.370756

>  <pki_A>  (25) 
5.169301

>  <SelB>  (25) 
0.781009

>  <SelA>  (25) 
0.982464

>  <SelD>  (25) 
0.590654

>  <AvgABSel>  (25) 
0.881737

>  <MACCS_FP>  (25) 
[0. 0. 0. 0. 0. 0. 0. 0. 0. 0. 0. 0. 0. 0. 0. 0. 0. 0. 0. 0. 0. 0. 0. 0.
 0. 0. 0. 0. 0. 0. 0. 0. 0. 0. 0. 0. 0. 0. 0. 0. 0. 0. 1. 0. 0. 0. 0. 0.
 0. 0. 0. 0. 0. 0. 0. 0. 0. 1. 0. 0. 0. 0. 0. 0. 0. 1. 0. 0. 0. 0. 0. 1.
 0. 0. 1. 0. 0. 0. 0. 1. 0. 0. 1. 1. 0. 0. 0. 1. 0. 1. 1. 1. 1. 0. 1. 1.
 1. 1. 0. 1. 1. 0. 1. 0. 1. 0. 0. 1. 1. 1. 1. 1. 0. 0. 1. 0. 0. 1. 1. 0.
 1. 1. 0. 1. 1. 1. 1. 1. 1. 1. 0. 1. 1. 0. 1. 0. 1. 1. 1. 0. 1. 1. 1. 1.
 0. 0. 1. 1. 0. 1. 1. 1. 1. 1. 1. 1. 1. 1. 1. 1. 1. 1. 1. 1. 1. 1. 0.]

>  <MACCS_pki_G>  (25) 
5.823284

>  <MACCS_pki_D>  (25) 
5.816121

>  <MACCS_pki_B>  (25) 
5.55719

>  <MACCS_pki_A>  (25) 
5.87656

>  <MACCS_SelB>  (25) 
0.266094

>  <MACCS_SelA>  (25) 
-0.053275

>  <MACCS_SelD>  (25) 
0.007163

>  <MACCSAvgABSel>  (25) 
0.106409

>  <Pharm2D_FP>  (25) 
[0. 0. 0. ... 0. 0. 0.]

>  <Pharm2D_pki_G>  (25) 
5.663802

>  <Pharm2D_pki_D>  (25) 
5.595879

>  <Pharm2D_pki_B>  (25) 
5.421306

>  <Pharm2D_pki_A>  (25) 
5.26531

>  <Pharm2D_SelB>  (25) 
0.242496

>  <Pharm2D_SelA>  (25) 
0.398492

>  <Pharm2D_SelD>  (25) 
0.067923

>  <Pharm2DAvgABSel>  (25) 
0.320494

>  <QED>  (25) 
0.208739

$$$$
DB07688
     RDKit          2D

 27 30  0  0  0  0  0  0  0  0999 V2000
   -4.4474   -2.6703    0.0000 N   0  0  0  0  0  0  0  0  0  0  0  0
   -3.7329   -2.2578    0.0000 S   0  0  0  0  0  0  0  0  0  0  0  0
   -3.3204   -2.9722    0.0000 O   0  0  0  0  0  0  0  0  0  0  0  0
   -4.1454   -1.5433    0.0000 O   0  0  0  0  0  0  0  0  0  0  0  0
   -3.0185   -1.8453    0.0000 C   0  0  0  0  0  0  0  0  0  0  0  0
   -3.0185   -1.0203    0.0000 C   0  0  0  0  0  0  0  0  0  0  0  0
   -2.3040   -2.2578    0.0000 C   0  0  0  0  0  0  0  0  0  0  0  0
   -1.5895   -1.8453    0.0000 C   0  0  0  0  0  0  0  0  0  0  0  0
   -2.3040   -0.6078    0.0000 C   0  0  0  0  0  0  0  0  0  0  0  0
   -1.5895   -1.0203    0.0000 C   0  0  0  0  0  0  0  0  0  0  0  0
   -0.8751   -0.6078    0.0000 N   0  0  0  0  0  0  0  0  0  0  0  0
   -0.8751    0.2172    0.0000 C   0  0  0  0  0  0  0  0  0  0  0  0
   -1.5895    0.6297    0.0000 N   0  0  0  0  0  0  0  0  0  0  0  0
   -1.5895    1.4547    0.0000 C   0  0  0  0  0  0  0  0  0  0  0  0
   -0.8751    1.8672    0.0000 N   0  0  0  0  0  0  0  0  0  0  0  0
   -2.3741    1.7097    0.0000 N   0  0  0  0  0  0  0  0  0  0  0  0
   -2.8591    1.0422    0.0000 C   0  0  0  0  0  0  0  0  0  0  0  0
   -2.3741    0.3748    0.0000 N   0  0  0  0  0  0  0  0  0  0  0  0
   -0.1606    0.6297    0.0000 C   0  0  0  0  0  0  0  0  0  0  0  0
   -0.1606    1.4547    0.0000 C   0  0  0  0  0  0  0  0  0  0  0  0
    0.5539    1.8672    0.0000 O   0  0  0  0  0  0  0  0  0  0  0  0
    1.2684    1.4547    0.0000 C   0  0  0  0  0  0  0  0  0  0  0  0
    1.9828    1.8672    0.0000 C   0  0  0  0  0  0  0  0  0  0  0  0
    2.6973    1.4547    0.0000 C   0  0  0  0  0  0  0  0  0  0  0  0
    2.6973    0.6297    0.0000 C   0  0  0  0  0  0  0  0  0  0  0  0
    1.9828    0.2172    0.0000 C   0  0  0  0  0  0  0  0  0  0  0  0
    1.2684    0.6297    0.0000 C   0  0  0  0  0  0  0  0  0  0  0  0
  1  2  1  0
  2  3  2  0
  2  4  2  0
  2  5  1  0
  5  6  2  0
  5  7  1  0
  6  9  1  0
  7  8  2  0
  8 10  1  0
  9 10  2  0
 10 11  1  0
 11 12  1  0
 12 13  1  0
 12 19  2  0
 13 14  1  0
 13 18  1  0
 14 15  1  0
 14 16  2  0
 15 20  2  0
 16 17  1  0
 17 18  2  0
 19 20  1  0
 20 21  1  0
 21 22  1  0
 22 23  1  0
 22 27  1  0
 23 24  1  0
 24 25  1  0
 25 26  1  0
 26 27  1  0
M  END
>  <ALOGPS_LOGP>  (26) 
2.86

>  <ALOGPS_LOGS>  (26) 
-4.10

>  <ALOGPS_SOLUBILITY>  (26) 
3.11e-02 g/l

>  <DATABASE_NAME>  (26) 
drugbank

>  <DRUGBANK_ID>  (26) 
DB07688

>  <DRUG_GROUPS>  (26) 
experimental

>  <EXACT_MASS>  (26) 
388.131759226

>  <FORMULA>  (26) 
C17H20N6O3S

>  <GENERIC_NAME>  (26) 
4-{[5-(CYCLOHEXYLOXY)[1,2,4]TRIAZOLO[1,5-A]PYRIMIDIN-7-YL]AMINO}BENZENESULFONAMIDE

>  <ID>  (26) 
DT5

>  <INCHI_IDENTIFIER>  (26) 
InChI=1S/C17H20N6O3S/c18-27(24,25)14-8-6-12(7-9-14)21-15-10-16(22-17-19-11-20-23(15)17)26-13-4-2-1-3-5-13/h6-11,13,21H,1-5H2,(H2,18,24,25)

>  <INCHI_KEY>  (26) 
RPJIMTALCNCQLV-UHFFFAOYSA-N

>  <INTERNATIONAL_BRANDS>  (26) 
nan

>  <JCHEM_ACCEPTOR_COUNT>  (26) 
7

>  <JCHEM_ATOM_COUNT>  (26) 
nan

>  <JCHEM_AVERAGE_POLARIZABILITY>  (26) 
39.19368843538484

>  <JCHEM_BIOAVAILABILITY>  (26) 
1

>  <JCHEM_DONOR_COUNT>  (26) 
2

>  <JCHEM_FORMAL_CHARGE>  (26) 
0

>  <JCHEM_GHOSE_FILTER>  (26) 
1

>  <JCHEM_IUPAC>  (26) 
4-{[5-(cyclohexyloxy)-[1,2,4]triazolo[1,5-a]pyrimidin-7-yl]amino}benzene-1-sulfonamide

>  <JCHEM_LOGP>  (26) 
2.5838569419999997

>  <JCHEM_MDDR_LIKE_RULE>  (26) 
0

>  <JCHEM_NUMBER_OF_RINGS>  (26) 
4

>  <JCHEM_PHYSIOLOGICAL_CHARGE>  (26) 
0

>  <JCHEM_PKA>  (26) 
17.319261691218237

>  <JCHEM_PKA_STRONGEST_ACIDIC>  (26) 
10.758078707044154

>  <JCHEM_PKA_STRONGEST_BASIC>  (26) 
-0.22148150668596356

>  <JCHEM_POLAR_SURFACE_AREA>  (26) 
124.5

>  <JCHEM_REFRACTIVITY>  (26) 
111.29319999999998

>  <JCHEM_ROTATABLE_BOND_COUNT>  (26) 
5

>  <JCHEM_RULE_OF_FIVE>  (26) 
1

>  <JCHEM_TRADITIONAL_IUPAC>  (26) 
4-{[5-(cyclohexyloxy)-[1,2,4]triazolo[1,5-a]pyrimidin-7-yl]amino}benzenesulfonamide

>  <JCHEM_VEBER_RULE>  (26) 
0

>  <MOLECULAR_WEIGHT>  (26) 
388.444

>  <PRODUCTS>  (26) 
nan

>  <SALTS>  (26) 
nan

>  <SECONDARY_ACCESSION_NUMBERS>  (26) 
nan

>  <SMILES>  (26) 
NS(=O)(=O)C1=CC=C(NC2=CC(OC3CCCCC3)=NC3=NC=NN23)C=C1

>  <SYNONYMS>  (26) 
nan

>  <ECFP_FP>  (26) 
<rdkit.DataStructs.cDataStructs.ExplicitBitVect object at 0xa26aae6c0>

>  <pki_G>  (26) 
6.149172

>  <pki_D>  (26) 
5.607934

>  <pki_B>  (26) 
5.465344

>  <pki_A>  (26) 
5.358696

>  <SelB>  (26) 
0.683828

>  <SelA>  (26) 
0.790476

>  <SelD>  (26) 
0.541238

>  <AvgABSel>  (26) 
0.737152

>  <MACCS_FP>  (26) 
[0. 0. 0. 0. 0. 0. 0. 0. 0. 0. 0. 0. 0. 0. 0. 0. 0. 0. 0. 0. 0. 0. 0. 0.
 0. 1. 0. 0. 0. 0. 0. 0. 1. 1. 0. 0. 0. 0. 1. 0. 0. 0. 0. 0. 0. 0. 0. 0.
 0. 0. 0. 1. 1. 0. 0. 1. 0. 0. 1. 1. 1. 1. 0. 0. 1. 1. 0. 1. 0. 1. 0. 0.
 0. 1. 0. 0. 0. 1. 0. 1. 1. 1. 0. 1. 1. 0. 0. 0. 1. 0. 0. 0. 1. 0. 1. 0.
 1. 1. 1. 0. 0. 1. 1. 0. 0. 1. 1. 0. 0. 0. 1. 0. 1. 1. 0. 0. 0. 1. 1. 0.
 1. 1. 1. 0. 1. 1. 1. 1. 1. 1. 1. 1. 1. 1. 0. 1. 1. 1. 0. 0. 0. 0. 1. 1.
 0. 1. 1. 1. 1. 0. 0. 1. 1. 0. 0. 0. 1. 1. 1. 1. 0. 1. 1. 1. 1. 1. 0.]

>  <MACCS_pki_G>  (26) 
6.18631

>  <MACCS_pki_D>  (26) 
6.400179

>  <MACCS_pki_B>  (26) 
5.759947

>  <MACCS_pki_A>  (26) 
5.490809

>  <MACCS_SelB>  (26) 
0.426363

>  <MACCS_SelA>  (26) 
0.695501

>  <MACCS_SelD>  (26) 
-0.213869

>  <MACCSAvgABSel>  (26) 
0.560932

>  <Pharm2D_FP>  (26) 
[0. 0. 0. ... 0. 0. 0.]

>  <Pharm2D_pki_G>  (26) 
5.857231

>  <Pharm2D_pki_D>  (26) 
5.758666

>  <Pharm2D_pki_B>  (26) 
5.392322

>  <Pharm2D_pki_A>  (26) 
5.348333

>  <Pharm2D_SelB>  (26) 
0.464909

>  <Pharm2D_SelA>  (26) 
0.508897

>  <Pharm2D_SelD>  (26) 
0.098565

>  <Pharm2DAvgABSel>  (26) 
0.486903

>  <QED>  (26) 
0.686422

$$$$
DB13816
     RDKit          2D

 34 36  0  0  1  0  0  0  0  0999 V2000
    2.5600    0.7927    0.0000 C   0  0  0  0  0  0  0  0  0  0  0  0
    2.5600    1.8968    0.0000 C   0  0  0  0  0  0  0  0  0  0  0  0
    2.1439    7.5490    0.0000 C   0  0  0  0  0  0  0  0  0  0  0  0
   -2.4811    4.0907    0.0000 C   0  0  0  0  0  0  0  0  0  0  0  0
   -2.1113    2.7105    0.0000 C   0  0  0  0  0  0  0  0  0  0  0  0
   -3.2780    3.8772    0.0000 C   0  0  0  0  0  0  0  0  0  0  0  0
   -2.9082    2.4970    0.0000 C   0  0  0  0  0  0  0  0  0  0  0  0
    0.9200    5.7417    0.0000 C   0  0  0  0  0  0  0  0  0  0  0  0
   -1.8977    3.5074    0.0000 C   0  0  0  0  0  0  0  0  0  0  0  0
   -3.4915    3.0803    0.0000 C   0  0  0  0  0  0  0  0  0  0  0  0
    0.1231    5.5282    0.0000 C   0  0  0  0  0  0  0  0  0  0  0  0
    1.1335    6.5386    0.0000 C   0  0  0  0  0  0  0  0  0  0  0  0
   -1.1009    3.7209    0.0000 C   0  0  0  0  0  0  0  0  0  0  0  0
   -0.1477    1.7573    0.0000 C   0  0  0  0  0  0  0  0  0  0  0  0
    1.4620    0.6773    0.0000 C   0  0  0  0  0  0  0  0  0  0  0  0
   -0.0904    4.7313    0.0000 C   0  0  0  0  0  0  0  0  0  0  0  0
   -0.5175    3.1375    0.0000 C   0  0  0  0  0  0  0  0  0  0  0  0
   -0.1477    0.9323    0.0000 C   0  0  0  0  0  0  0  0  0  0  0  0
    0.6773    1.7573    0.0000 C   0  0  0  0  0  0  0  0  0  0  0  0
    1.7169   -0.1073    0.0000 C   0  0  0  0  0  0  0  0  0  0  0  0
    1.9469    1.3448    0.0000 C   0  0  0  0  0  0  0  0  0  0  0  0
   -0.4603    6.1116    0.0000 N   0  0  0  0  0  0  0  0  0  0  0  0
    1.9304    6.7521    0.0000 N   0  0  0  0  0  0  0  0  0  0  0  0
   -0.8873    4.5178    0.0000 N   0  0  0  0  0  0  0  0  0  0  0  0
   -0.7310    2.3406    0.0000 N   0  0  0  0  0  0  0  0  0  0  0  0
    0.6773    0.9323    0.0000 N   0  0  0  0  0  0  0  0  0  0  0  0
   -4.2884    2.8668    0.0000 O   0  0  0  0  0  0  0  0  0  0  0  0
    0.5501    7.1220    0.0000 O   0  0  0  0  0  0  0  0  0  0  0  0
    0.4929    4.1479    0.0000 O   0  0  0  0  0  0  0  0  0  0  0  0
    0.2794    3.3511    0.0000 O   0  0  0  0  0  0  0  0  0  0  0  0
   -0.7310    0.3489    0.0000 O   0  0  0  0  0  0  0  0  0  0  0  0
    2.5239   -0.2788    0.0000 O   0  0  0  0  0  0  0  0  0  0  0  0
    1.1649   -0.7204    0.0000 O   0  0  0  0  0  0  0  0  0  0  0  0
    1.4620    2.0122    0.0000 S   0  0  0  0  0  0  0  0  0  0  0  0
  6  4  2  0
  7  5  1  0
  9  4  1  0
  9  5  2  0
 10  6  1  0
 10  7  2  0
 11  8  1  0
 12  8  1  0
 13  9  1  0
 16 11  1  0
 17 13  1  0
 18 14  1  0
 19 14  1  0
 15 20  1  6
 21  1  1  0
 21  2  1  0
 21 15  1  0
 11 22  1  6
 23  3  1  0
 23 12  2  3
 13 24  1  1
 24 16  2  3
 14 25  1  1
 25 17  2  3
 26 15  1  0
 26 18  1  0
 26 19  1  0
 27 10  1  0
 28 12  1  0
 16 29  1  0
 17 30  1  0
 31 18  2  0
 32 20  2  0
 33 20  1  0
 19 34  1  1
 34 21  1  0
M  END
>  <ALOGPS_LOGP>  (27) 
-0.69

>  <ALOGPS_LOGS>  (27) 
-3.69

>  <ALOGPS_SOLUBILITY>  (27) 
1.01e-01 g/l

>  <DATABASE_NAME>  (27) 
drugbank

>  <DRUGBANK_ID>  (27) 
DB13816

>  <DRUG_GROUPS>  (27) 
experimental

>  <EXACT_MASS>  (27) 
493.163119403

>  <FORMULA>  (27) 
C21H27N5O7S

>  <GENERIC_NAME>  (27) 
Aspoxicillin

>  <ID>  (27) 


>  <INCHI_IDENTIFIER>  (27) 
InChI=1S/C21H27N5O7S/c1-21(2)15(20(32)33)26-18(31)14(19(26)34-21)25-17(30)13(9-4-6-10(27)7-5-9)24-16(29)11(22)8-12(28)23-3/h4-7,11,13-15,19,27H,8,22H2,1-3H3,(H,23,28)(H,24,29)(H,25,30)(H,32,33)/t11-,13-,14-,15+,19-/m1/s1

>  <INCHI_KEY>  (27) 
BHELIUBJHYAEDK-OAIUPTLZSA-N

>  <INTERNATIONAL_BRANDS>  (27) 
nan

>  <JCHEM_ACCEPTOR_COUNT>  (27) 
11

>  <JCHEM_ATOM_COUNT>  (27) 
61

>  <JCHEM_AVERAGE_POLARIZABILITY>  (27) 
47.585705276343795

>  <JCHEM_BIOAVAILABILITY>  (27) 
0

>  <JCHEM_DONOR_COUNT>  (27) 
6

>  <JCHEM_FORMAL_CHARGE>  (27) 
0

>  <JCHEM_GHOSE_FILTER>  (27) 
0

>  <JCHEM_IUPAC>  (27) 
(2S,5R,6R)-6-{[(2R)-2-{[(2R)-2-amino-1-hydroxy-3-(methyl-C-hydroxycarbonimidoyl)propylidene]amino}-1-hydroxy-2-(4-hydroxyphenyl)ethylidene]amino}-3,3-dimethyl-7-oxo-4-thia-1-azabicyclo[3.2.0]heptane-2-carboxylic acid

>  <JCHEM_LOGP>  (27) 
-3.8619325567704075

>  <JCHEM_MDDR_LIKE_RULE>  (27) 
1

>  <JCHEM_NUMBER_OF_RINGS>  (27) 
3

>  <JCHEM_PHYSIOLOGICAL_CHARGE>  (27) 
0

>  <JCHEM_PKA>  (27) 
3.084309372284967

>  <JCHEM_PKA_STRONGEST_ACIDIC>  (27) 
2.5271902276780693

>  <JCHEM_PKA_STRONGEST_BASIC>  (27) 
9.910512150742184

>  <JCHEM_POLAR_SURFACE_AREA>  (27) 
201.62999999999997

>  <JCHEM_REFRACTIVITY>  (27) 
121.12119999999997

>  <JCHEM_ROTATABLE_BOND_COUNT>  (27) 
8

>  <JCHEM_RULE_OF_FIVE>  (27) 
0

>  <JCHEM_TRADITIONAL_IUPAC>  (27) 
aspoxicillin

>  <JCHEM_VEBER_RULE>  (27) 
0

>  <MOLECULAR_WEIGHT>  (27) 
493.54

>  <PRODUCTS>  (27) 
nan

>  <SALTS>  (27) 
nan

>  <SECONDARY_ACCESSION_NUMBERS>  (27) 
nan

>  <SMILES>  (27) 
[H][C@@](N)(CC(O)=NC)C(O)=N[C@@]([H])(C(O)=N[C@]1([H])C(=O)N2[C@]1([H])SC(C)(C)[C@]2([H])C(O)=O)C1=CC=C(O)C=C1

>  <SYNONYMS>  (27) 
nan

>  <ECFP_FP>  (27) 
<rdkit.DataStructs.cDataStructs.ExplicitBitVect object at 0xa26ce85d0>

>  <pki_G>  (27) 
6.144811

>  <pki_D>  (27) 
6.332508

>  <pki_B>  (27) 
5.462618

>  <pki_A>  (27) 
5.291682

>  <SelB>  (27) 
0.682193

>  <SelA>  (27) 
0.853129

>  <SelD>  (27) 
-0.187697

>  <AvgABSel>  (27) 
0.767661

>  <MACCS_FP>  (27) 
[0. 0. 0. 0. 0. 0. 0. 0. 1. 0. 0. 1. 0. 0. 0. 0. 0. 0. 0. 1. 0. 0. 0. 0.
 0. 0. 0. 0. 0. 0. 0. 0. 0. 0. 0. 0. 1. 0. 0. 0. 0. 0. 0. 0. 0. 0. 0. 1.
 0. 0. 0. 0. 0. 1. 1. 0. 0. 0. 0. 0. 0. 0. 0. 0. 0. 0. 1. 0. 0. 0. 0. 0.
 0. 0. 1. 0. 0. 0. 1. 1. 1. 1. 0. 1. 1. 1. 0. 0. 1. 0. 1. 0. 1. 1. 0. 1.
 1. 1. 0. 0. 0. 0. 0. 0. 1. 1. 0. 0. 0. 0. 1. 1. 1. 1. 0. 0. 1. 1. 0. 1.
 1. 1. 1. 1. 0. 0. 0. 1. 0. 0. 0. 1. 1. 1. 0. 0. 1. 1. 0. 1. 1. 1. 1. 1.
 0. 0. 1. 0. 1. 1. 1. 1. 1. 0. 1. 1. 1. 1. 1. 1. 1. 1. 1. 1. 1. 1. 0.]

>  <MACCS_pki_G>  (27) 
5.974498

>  <MACCS_pki_D>  (27) 
5.919702

>  <MACCS_pki_B>  (27) 
5.635898

>  <MACCS_pki_A>  (27) 
5.87656

>  <MACCS_SelB>  (27) 
0.338599

>  <MACCS_SelA>  (27) 
0.097938

>  <MACCS_SelD>  (27) 
0.054795

>  <MACCSAvgABSel>  (27) 
0.218268

>  <Pharm2D_FP>  (27) 
[0. 0. 0. ... 0. 0. 0.]

>  <Pharm2D_pki_G>  (27) 
6.585973

>  <Pharm2D_pki_D>  (27) 
5.894597

>  <Pharm2D_pki_B>  (27) 
5.991257

>  <Pharm2D_pki_A>  (27) 
5.638058

>  <Pharm2D_SelB>  (27) 
0.594716

>  <Pharm2D_SelA>  (27) 
0.947916

>  <Pharm2D_SelD>  (27) 
0.691376

>  <Pharm2DAvgABSel>  (27) 
0.771316

>  <QED>  (27) 
0.17447

$$$$
DB03052
     RDKit          2D

 17 18  0  0  0  0  0  0  0  0999 V2000
   -1.5356    8.0652    0.0000 O   0  0  0  0  0  0  0  0  0  0  0  0
   -0.8212    8.4777    0.0000 C   0  0  0  0  0  0  0  0  0  0  0  0
   -0.8212    9.3027    0.0000 O   0  0  0  0  0  0  0  0  0  0  0  0
   -0.1067    8.0652    0.0000 C   0  0  0  0  0  0  0  0  0  0  0  0
    0.6078    8.4777    0.0000 C   0  0  0  0  0  0  0  0  0  0  0  0
    1.3222    8.0652    0.0000 C   0  0  0  0  0  0  0  0  0  0  0  0
    1.3222    7.2402    0.0000 C   0  0  0  0  0  0  0  0  0  0  0  0
    2.0367    6.8277    0.0000 O   0  0  0  0  0  0  0  0  0  0  0  0
    2.0367    6.0027    0.0000 C   0  0  0  0  0  0  0  0  0  0  0  0
    2.7512    5.5902    0.0000 C   0  0  0  0  0  0  0  0  0  0  0  0
    2.7512    4.7652    0.0000 N   0  0  0  0  0  0  0  0  0  0  0  0
    3.4186    4.2803    0.0000 C   0  0  0  0  0  0  0  0  0  0  0  0
    3.1637    3.4956    0.0000 C   0  0  0  0  0  0  0  0  0  0  0  0
    2.3387    3.4956    0.0000 N   0  0  0  0  0  0  0  0  0  0  0  0
    2.0837    4.2803    0.0000 C   0  0  0  0  0  0  0  0  0  0  0  0
    0.6078    6.8277    0.0000 C   0  0  0  0  0  0  0  0  0  0  0  0
   -0.1067    7.2402    0.0000 C   0  0  0  0  0  0  0  0  0  0  0  0
  1  2  1  0
  2  3  2  0
  2  4  1  0
  4  5  2  0
  5  6  1  0
  6  7  2  0
  7  8  1  0
  8  9  1  0
  9 10  1  0
 10 11  1  0
 11 12  1  0
 12 13  2  0
 13 14  1  0
 14 15  2  0
 11 15  1  0
  7 16  1  0
 16 17  2  0
  4 17  1  0
M  END
>  <ALOGPS_LOGP>  (28) 
1.44

>  <ALOGPS_LOGS>  (28) 
-2.26

>  <ALOGPS_SOLUBILITY>  (28) 
1.28e+00 g/l

>  <DATABASE_NAME>  (28) 
drugbank

>  <DRUGBANK_ID>  (28) 
DB03052

>  <DRUG_GROUPS>  (28) 
experimental

>  <EXACT_MASS>  (28) 
232.08479226

>  <FORMULA>  (28) 
C12H12N2O3

>  <GENERIC_NAME>  (28) 
Dazoxiben

>  <ID>  (28) 


>  <INCHI_IDENTIFIER>  (28) 
InChI=1S/C12H12N2O3/c15-12(16)10-1-3-11(4-2-10)17-8-7-14-6-5-13-9-14/h1-6,9H,7-8H2,(H,15,16)

>  <INCHI_KEY>  (28) 
XQGZSYKGWHUSDH-UHFFFAOYSA-N

>  <INTERNATIONAL_BRANDS>  (28) 
nan

>  <JCHEM_ACCEPTOR_COUNT>  (28) 
4

>  <JCHEM_ATOM_COUNT>  (28) 
nan

>  <JCHEM_AVERAGE_POLARIZABILITY>  (28) 
23.34904375488626

>  <JCHEM_BIOAVAILABILITY>  (28) 
1

>  <JCHEM_DONOR_COUNT>  (28) 
1

>  <JCHEM_FORMAL_CHARGE>  (28) 
0

>  <JCHEM_GHOSE_FILTER>  (28) 
1

>  <JCHEM_IUPAC>  (28) 
4-[2-(1H-imidazol-1-yl)ethoxy]benzoic acid

>  <JCHEM_LOGP>  (28) 
0.5099475058902694

>  <JCHEM_MDDR_LIKE_RULE>  (28) 
0

>  <JCHEM_NUMBER_OF_RINGS>  (28) 
2

>  <JCHEM_PHYSIOLOGICAL_CHARGE>  (28) 
-1

>  <JCHEM_PKA>  (28) 
nan

>  <JCHEM_PKA_STRONGEST_ACIDIC>  (28) 
4.3585805898669525

>  <JCHEM_PKA_STRONGEST_BASIC>  (28) 
6.773700236370969

>  <JCHEM_POLAR_SURFACE_AREA>  (28) 
64.35

>  <JCHEM_REFRACTIVITY>  (28) 
61.7179

>  <JCHEM_ROTATABLE_BOND_COUNT>  (28) 
5

>  <JCHEM_RULE_OF_FIVE>  (28) 
1

>  <JCHEM_TRADITIONAL_IUPAC>  (28) 
dazoxiben

>  <JCHEM_VEBER_RULE>  (28) 
0

>  <MOLECULAR_WEIGHT>  (28) 
232.2353

>  <PRODUCTS>  (28) 
nan

>  <SALTS>  (28) 
nan

>  <SECONDARY_ACCESSION_NUMBERS>  (28) 
EXPT03297

>  <SMILES>  (28) 
OC(=O)C1=CC=C(OCCN2C=CN=C2)C=C1

>  <SYNONYMS>  (28) 
Dazoxiben; Dazoxibene; Dazoxibenum

>  <ECFP_FP>  (28) 
<rdkit.DataStructs.cDataStructs.ExplicitBitVect object at 0xa267999e0>

>  <pki_G>  (28) 
6.138016

>  <pki_D>  (28) 
5.636503

>  <pki_B>  (28) 
5.472361

>  <pki_A>  (28) 
5.34991

>  <SelB>  (28) 
0.665654

>  <SelA>  (28) 
0.788105

>  <SelD>  (28) 
0.501513

>  <AvgABSel>  (28) 
0.72688

>  <MACCS_FP>  (28) 
[0. 0. 0. 0. 0. 0. 0. 0. 0. 0. 0. 0. 0. 0. 0. 0. 0. 0. 0. 0. 0. 0. 0. 0.
 0. 0. 0. 0. 0. 0. 0. 0. 0. 0. 0. 0. 0. 0. 0. 0. 0. 0. 0. 0. 0. 0. 0. 0.
 0. 0. 0. 0. 0. 0. 0. 0. 0. 0. 0. 0. 0. 0. 0. 0. 0. 1. 0. 0. 0. 0. 0. 0.
 0. 0. 0. 1. 0. 1. 0. 1. 0. 0. 0. 1. 0. 1. 0. 0. 0. 0. 0. 0. 0. 0. 0. 1.
 1. 0. 0. 0. 1. 0. 0. 0. 0. 0. 0. 0. 0. 1. 0. 1. 0. 1. 0. 0. 0. 0. 1. 0.
 1. 1. 1. 1. 0. 1. 1. 1. 0. 0. 0. 0. 1. 0. 0. 0. 0. 1. 1. 1. 0. 0. 1. 1.
 0. 0. 1. 1. 1. 0. 0. 0. 1. 1. 1. 1. 0. 1. 1. 1. 0. 1. 1. 1. 1. 1. 0.]

>  <MACCS_pki_G>  (28) 
5.70729

>  <MACCS_pki_D>  (28) 
5.828598

>  <MACCS_pki_B>  (28) 
5.593234

>  <MACCS_pki_A>  (28) 
5.321318

>  <MACCS_SelB>  (28) 
0.114056

>  <MACCS_SelA>  (28) 
0.385972

>  <MACCS_SelD>  (28) 
-0.121308

>  <MACCSAvgABSel>  (28) 
0.250014

>  <Pharm2D_FP>  (28) 
[0. 0. 0. ... 0. 0. 0.]

>  <Pharm2D_pki_G>  (28) 
5.748474

>  <Pharm2D_pki_D>  (28) 
5.422182

>  <Pharm2D_pki_B>  (28) 
5.363887

>  <Pharm2D_pki_A>  (28) 
5.225191

>  <Pharm2D_SelB>  (28) 
0.384587

>  <Pharm2D_SelA>  (28) 
0.523282

>  <Pharm2D_SelD>  (28) 
0.326292

>  <Pharm2DAvgABSel>  (28) 
0.453935

>  <QED>  (28) 
0.851031

$$$$
DB08079
     RDKit          2D

 29 33  0  0  0  0  0  0  0  0999 V2000
    0.5699   -1.4563    0.0000 N   0  0  0  0  0  0  0  0  0  0  0  0
   -0.9292   -2.9487    0.0000 N   0  0  0  0  0  0  0  0  0  0  0  0
    1.9989   -1.4563    0.0000 C   0  0  0  0  0  0  0  0  0  0  0  0
    1.9989   -0.6313    0.0000 C   0  0  0  0  0  0  0  0  0  0  0  0
    2.7134   -0.2188    0.0000 C   0  0  0  0  0  0  0  0  0  0  0  0
    1.2844   -1.8688    0.0000 C   0  0  0  0  0  0  0  0  0  0  0  0
    1.2844   -2.6938    0.0000 C   0  0  0  0  0  0  0  0  0  0  0  0
   -0.1445   -2.6938    0.0000 C   0  0  0  0  0  0  0  0  0  0  0  0
   -2.2460    0.1269    0.0000 C   0  0  0  0  0  0  0  0  0  0  0  0
   -3.3079    1.0831    0.0000 C   0  0  0  0  0  0  0  0  0  0  0  0
   -1.9489    1.5247    0.0000 C   0  0  0  0  0  0  0  0  0  0  0  0
   -0.3350    1.1816    0.0000 C   0  0  0  0  0  0  0  0  0  0  0  0
   -0.8870    0.5685    0.0000 C   0  0  0  0  0  0  0  0  0  0  0  0
   -0.2928    3.3639    0.0000 C   0  0  0  0  0  0  0  0  0  0  0  0
   -0.0379    2.5793    0.0000 O   0  0  0  0  0  0  0  0  0  0  0  0
   -0.5899    1.9662    0.0000 C   0  0  0  0  0  0  0  0  0  0  0  0
   -1.3969    2.1377    0.0000 C   0  0  0  0  0  0  0  0  0  0  0  0
   -1.6940    0.7400    0.0000 C   0  0  0  0  0  0  0  0  0  0  0  0
   -2.7559    1.6962    0.0000 N   0  0  0  0  0  0  0  0  0  0  0  0
   -3.0530    0.2985    0.0000 C   0  0  0  0  0  0  0  0  0  0  0  0
   -1.9911   -0.6577    0.0000 O   0  0  0  0  0  0  0  0  0  0  0  0
   -1.1841   -0.8292    0.0000 C   0  0  0  0  0  0  0  0  0  0  0  0
   -0.9292   -1.6138    0.0000 C   0  0  0  0  0  0  0  0  0  0  0  0
   -0.1445   -1.8688    0.0000 N   0  0  0  0  0  0  0  0  0  0  0  0
   -1.4141   -2.2813    0.0000 N   0  0  0  0  0  0  0  0  0  0  0  0
    0.5699   -3.1063    0.0000 C   0  0  0  0  0  0  0  0  0  0  0  0
    2.7134   -1.8688    0.0000 C   0  0  0  0  0  0  0  0  0  0  0  0
    3.4278   -1.4563    0.0000 C   0  0  0  0  0  0  0  0  0  0  0  0
    3.4278   -0.6313    0.0000 C   0  0  0  0  0  0  0  0  0  0  0  0
  1  6  2  0
  1 24  1  0
  2  8  2  0
  2 25  1  0
  3  4  2  0
  3  6  1  0
  3 27  1  0
  4  5  1  0
  5 29  2  0
  6  7  1  0
  7 26  2  0
  8 24  1  0
  8 26  1  0
  9 18  1  0
  9 20  2  0
  9 21  1  0
 10 19  2  0
 10 20  1  0
 11 17  2  0
 11 18  1  0
 11 19  1  0
 12 13  1  0
 12 16  2  0
 13 18  2  0
 14 15  1  0
 15 16  1  0
 16 17  1  0
 21 22  1  0
 22 23  1  0
 23 24  1  0
 23 25  2  0
 27 28  2  0
 28 29  1  0
M  END
>  <ALOGPS_LOGP>  (29) 
3.66

>  <ALOGPS_LOGS>  (29) 
-4.52

>  <ALOGPS_SOLUBILITY>  (29) 
1.15e-02 g/l

>  <DATABASE_NAME>  (29) 
drugbank

>  <DRUGBANK_ID>  (29) 
DB08079

>  <DRUG_GROUPS>  (29) 
investigational

>  <EXACT_MASS>  (29) 
383.138224813

>  <FORMULA>  (29) 
C22H17N5O2

>  <GENERIC_NAME>  (29) 
AMG-208

>  <ID>  (29) 
L5G

>  <INCHI_IDENTIFIER>  (29) 
InChI=1S/C22H17N5O2/c1-28-16-7-8-17-19(13-16)23-12-11-20(17)29-14-22-25-24-21-10-9-18(26-27(21)22)15-5-3-2-4-6-15/h2-13H,14H2,1H3

>  <INCHI_KEY>  (29) 
HEAIZQNMNCHNFD-UHFFFAOYSA-N

>  <INTERNATIONAL_BRANDS>  (29) 
nan

>  <JCHEM_ACCEPTOR_COUNT>  (29) 
6

>  <JCHEM_ATOM_COUNT>  (29) 
nan

>  <JCHEM_AVERAGE_POLARIZABILITY>  (29) 
40.71961055016608

>  <JCHEM_BIOAVAILABILITY>  (29) 
1

>  <JCHEM_DONOR_COUNT>  (29) 
0

>  <JCHEM_FORMAL_CHARGE>  (29) 
0

>  <JCHEM_GHOSE_FILTER>  (29) 
1

>  <JCHEM_IUPAC>  (29) 
7-methoxy-4-({6-phenyl-[1,2,4]triazolo[4,3-b]pyridazin-3-yl}methoxy)quinoline

>  <JCHEM_LOGP>  (29) 
3.3655483416666674

>  <JCHEM_MDDR_LIKE_RULE>  (29) 
0

>  <JCHEM_NUMBER_OF_RINGS>  (29) 
5

>  <JCHEM_PHYSIOLOGICAL_CHARGE>  (29) 
0

>  <JCHEM_PKA>  (29) 
nan

>  <JCHEM_PKA_STRONGEST_ACIDIC>  (29) 
nan

>  <JCHEM_PKA_STRONGEST_BASIC>  (29) 
6.171129184804966

>  <JCHEM_POLAR_SURFACE_AREA>  (29) 
74.43

>  <JCHEM_REFRACTIVITY>  (29) 
119.54130000000002

>  <JCHEM_ROTATABLE_BOND_COUNT>  (29) 
5

>  <JCHEM_RULE_OF_FIVE>  (29) 
1

>  <JCHEM_TRADITIONAL_IUPAC>  (29) 
7-methoxy-4-({6-phenyl-[1,2,4]triazolo[4,3-b]pyridazin-3-yl}methoxy)quinoline

>  <JCHEM_VEBER_RULE>  (29) 
0

>  <MOLECULAR_WEIGHT>  (29) 
383.4027

>  <PRODUCTS>  (29) 
nan

>  <SALTS>  (29) 
nan

>  <SECONDARY_ACCESSION_NUMBERS>  (29) 
DB12603

>  <SMILES>  (29) 
COC1=CC2=NC=CC(OCC3=NN=C4C=CC(=NN34)C3=CC=CC=C3)=C2C=C1

>  <SYNONYMS>  (29) 
7-methoxy-4-[(6-phenyl[1,2,4]triazolo[4,3-b]pyridazin-3-yl)methoxy]quinoline

>  <ECFP_FP>  (29) 
<rdkit.DataStructs.cDataStructs.ExplicitBitVect object at 0xa26ae84e0>

>  <pki_G>  (29) 
6.135729

>  <pki_D>  (29) 
5.464823

>  <pki_B>  (29) 
5.58436

>  <pki_A>  (29) 
5.550145

>  <SelB>  (29) 
0.551369

>  <SelA>  (29) 
0.585584

>  <SelD>  (29) 
0.670905

>  <AvgABSel>  (29) 
0.568476

>  <MACCS_FP>  (29) 
[0. 0. 0. 0. 0. 0. 0. 0. 0. 0. 0. 0. 0. 0. 0. 0. 0. 0. 0. 0. 0. 0. 0. 0.
 0. 0. 0. 0. 0. 0. 0. 0. 0. 0. 0. 0. 0. 0. 1. 0. 0. 0. 0. 0. 0. 0. 0. 0.
 0. 0. 0. 0. 1. 0. 0. 0. 0. 0. 0. 0. 0. 0. 1. 0. 0. 1. 0. 0. 0. 0. 0. 0.
 0. 0. 0. 0. 0. 1. 0. 1. 1. 0. 0. 1. 0. 0. 0. 0. 0. 0. 0. 0. 0. 1. 1. 1.
 1. 1. 1. 0. 0. 1. 0. 0. 0. 1. 0. 0. 0. 1. 0. 1. 0. 1. 0. 0. 0. 0. 0. 0.
 1. 1. 1. 0. 1. 1. 1. 1. 0. 0. 1. 0. 0. 0. 0. 0. 0. 1. 0. 0. 0. 0. 1. 1.
 0. 1. 0. 0. 1. 0. 0. 0. 1. 1. 0. 1. 1. 1. 0. 1. 1. 1. 1. 1. 1. 1. 0.]

>  <MACCS_pki_G>  (29) 
6.471435

>  <MACCS_pki_D>  (29) 
6.510141

>  <MACCS_pki_B>  (29) 
5.797292

>  <MACCS_pki_A>  (29) 
5.454782

>  <MACCS_SelB>  (29) 
0.674142

>  <MACCS_SelA>  (29) 
1.016652

>  <MACCS_SelD>  (29) 
-0.038706

>  <MACCSAvgABSel>  (29) 
0.845397

>  <Pharm2D_FP>  (29) 
[0. 0. 0. ... 0. 0. 0.]

>  <Pharm2D_pki_G>  (29) 
6.181073

>  <Pharm2D_pki_D>  (29) 
5.714294

>  <Pharm2D_pki_B>  (29) 
5.470307

>  <Pharm2D_pki_A>  (29) 
5.27729

>  <Pharm2D_SelB>  (29) 
0.710766

>  <Pharm2D_SelA>  (29) 
0.903783

>  <Pharm2D_SelD>  (29) 
0.466779

>  <Pharm2DAvgABSel>  (29) 
0.807275

>  <QED>  (29) 
0.457825

$$$$
DB03307
     RDKit          2D

 18 19  0  0  0  0  0  0  0  0999 V2000
    2.1371    1.4976    0.0000 N   0  0  0  0  0  0  0  0  0  0  0  0
    2.1371    0.6726    0.0000 C   0  0  0  0  0  0  0  0  0  0  0  0
    2.8515    0.2601    0.0000 N   0  0  0  0  0  0  0  0  0  0  0  0
    2.8515   -0.5649    0.0000 C   0  0  0  0  0  0  0  0  0  0  0  0
    2.1371   -0.9774    0.0000 N   0  0  0  0  0  0  0  0  0  0  0  0
    1.4226    0.2601    0.0000 C   0  0  0  0  0  0  0  0  0  0  0  0
    1.4226   -0.5649    0.0000 C   0  0  0  0  0  0  0  0  0  0  0  0
    0.7081   -0.9774    0.0000 N   0  0  0  0  0  0  0  0  0  0  0  0
   -0.0064   -0.5649    0.0000 C   0  0  0  0  0  0  0  0  0  0  0  0
   -0.7208   -0.9774    0.0000 C   0  0  0  0  0  0  0  0  0  0  0  0
   -1.4353   -0.5649    0.0000 C   0  0  0  0  0  0  0  0  0  0  0  0
   -0.0064    0.2601    0.0000 C   0  0  0  0  0  0  0  0  0  0  0  0
   -0.7208    0.6726    0.0000 C   0  0  0  0  0  0  0  0  0  0  0  0
   -1.4353    0.2601    0.0000 C   0  0  0  0  0  0  0  0  0  0  0  0
   -2.1498    0.6726    0.0000 S   0  0  0  0  0  0  0  0  0  0  0  0
   -2.8642    1.0851    0.0000 O   0  0  0  0  0  0  0  0  0  0  0  0
   -1.7373    1.3871    0.0000 O   0  0  0  0  0  0  0  0  0  0  0  0
   -2.5623   -0.0419    0.0000 N   0  0  0  0  0  0  0  0  0  0  0  0
  1  2  1  0
  2  3  2  0
  2  6  1  0
  3  4  1  0
  4  5  2  0
  5  7  1  0
  6  7  2  0
  7  8  1  0
  8  9  1  0
  9 10  2  0
  9 12  1  0
 10 11  1  0
 11 14  2  0
 12 13  2  0
 13 14  1  0
 14 15  1  0
 15 16  2  0
 15 17  2  0
 15 18  1  0
M  END
>  <ALOGPS_LOGP>  (30) 
-0.31

>  <ALOGPS_LOGS>  (30) 
-2.78

>  <ALOGPS_SOLUBILITY>  (30) 
4.39e-01 g/l

>  <DATABASE_NAME>  (30) 
drugbank

>  <DRUGBANK_ID>  (30) 
DB03307

>  <DRUG_GROUPS>  (30) 
experimental

>  <EXACT_MASS>  (30) 
265.063345311

>  <FORMULA>  (30) 
C10H11N5O2S

>  <GENERIC_NAME>  (30) 
4-[(6-Amino-4-Pyrimidinyl)Amino]Benzenesulfonamide

>  <ID>  (30) 
U55

>  <INCHI_IDENTIFIER>  (30) 
InChI=1S/C10H11N5O2S/c11-9-5-10(14-6-13-9)15-7-1-3-8(4-2-7)18(12,16)17/h1-6H,(H2,12,16,17)(H3,11,13,14,15)

>  <INCHI_KEY>  (30) 
FVFVVRPJERUECT-UHFFFAOYSA-N

>  <INTERNATIONAL_BRANDS>  (30) 
nan

>  <JCHEM_ACCEPTOR_COUNT>  (30) 
6

>  <JCHEM_ATOM_COUNT>  (30) 
nan

>  <JCHEM_AVERAGE_POLARIZABILITY>  (30) 
25.772823230759293

>  <JCHEM_BIOAVAILABILITY>  (30) 
1

>  <JCHEM_DONOR_COUNT>  (30) 
3

>  <JCHEM_FORMAL_CHARGE>  (30) 
0

>  <JCHEM_GHOSE_FILTER>  (30) 
1

>  <JCHEM_IUPAC>  (30) 
4-[(6-aminopyrimidin-4-yl)amino]benzene-1-sulfonamide

>  <JCHEM_LOGP>  (30) 
0.4556811070000002

>  <JCHEM_MDDR_LIKE_RULE>  (30) 
0

>  <JCHEM_NUMBER_OF_RINGS>  (30) 
2

>  <JCHEM_PHYSIOLOGICAL_CHARGE>  (30) 
0

>  <JCHEM_PKA>  (30) 
15.632894523843902

>  <JCHEM_PKA_STRONGEST_ACIDIC>  (30) 
10.751263106255115

>  <JCHEM_PKA_STRONGEST_BASIC>  (30) 
6.375625306037236

>  <JCHEM_POLAR_SURFACE_AREA>  (30) 
123.99

>  <JCHEM_REFRACTIVITY>  (30) 
68.69380000000001

>  <JCHEM_ROTATABLE_BOND_COUNT>  (30) 
3

>  <JCHEM_RULE_OF_FIVE>  (30) 
1

>  <JCHEM_TRADITIONAL_IUPAC>  (30) 
4-[(6-aminopyrimidin-4-yl)amino]benzenesulfonamide

>  <JCHEM_VEBER_RULE>  (30) 
0

>  <MOLECULAR_WEIGHT>  (30) 
265.292

>  <PRODUCTS>  (30) 
nan

>  <SALTS>  (30) 
nan

>  <SECONDARY_ACCESSION_NUMBERS>  (30) 
EXPT03161

>  <SMILES>  (30) 
NC1=NC=NC(NC2=CC=C(C=C2)S(N)(=O)=O)=C1

>  <SYNONYMS>  (30) 
nan

>  <ECFP_FP>  (30) 
<rdkit.DataStructs.cDataStructs.ExplicitBitVect object at 0xa267c64e0>

>  <pki_G>  (30) 
6.129644

>  <pki_D>  (30) 
5.574596

>  <pki_B>  (30) 
5.416042

>  <pki_A>  (30) 
5.141469

>  <SelB>  (30) 
0.713602

>  <SelA>  (30) 
0.988175

>  <SelD>  (30) 
0.555048

>  <AvgABSel>  (30) 
0.850888

>  <MACCS_FP>  (30) 
[0. 0. 0. 0. 0. 0. 0. 0. 0. 0. 0. 0. 0. 0. 0. 0. 0. 0. 0. 0. 0. 0. 0. 0.
 0. 0. 0. 0. 0. 0. 0. 0. 1. 1. 0. 0. 0. 0. 1. 0. 0. 0. 0. 0. 0. 0. 0. 0.
 0. 0. 0. 1. 0. 1. 0. 1. 0. 0. 1. 1. 1. 1. 0. 0. 1. 1. 0. 1. 0. 1. 0. 0.
 0. 1. 0. 0. 0. 1. 0. 0. 1. 1. 0. 0. 1. 0. 0. 0. 1. 0. 0. 0. 0. 0. 1. 0.
 0. 0. 1. 0. 0. 0. 1. 0. 0. 0. 1. 0. 0. 0. 0. 0. 1. 0. 0. 0. 0. 1. 0. 0.
 1. 1. 0. 0. 1. 1. 0. 0. 0. 0. 1. 1. 0. 1. 0. 1. 1. 1. 0. 0. 0. 0. 1. 0.
 0. 1. 0. 0. 1. 0. 0. 1. 0. 0. 0. 0. 1. 0. 1. 1. 0. 1. 1. 1. 1. 1. 0.]

>  <MACCS_pki_G>  (30) 
5.785934

>  <MACCS_pki_D>  (30) 
6.377287

>  <MACCS_pki_B>  (30) 
5.545109

>  <MACCS_pki_A>  (30) 
5.563484

>  <MACCS_SelB>  (30) 
0.240825

>  <MACCS_SelA>  (30) 
0.22245

>  <MACCS_SelD>  (30) 
-0.591353

>  <MACCSAvgABSel>  (30) 
0.231638

>  <Pharm2D_FP>  (30) 
[0. 0. 0. ... 0. 0. 0.]

>  <Pharm2D_pki_G>  (30) 
5.748815

>  <Pharm2D_pki_D>  (30) 
5.768741

>  <Pharm2D_pki_B>  (30) 
5.375614

>  <Pharm2D_pki_A>  (30) 
5.361981

>  <Pharm2D_SelB>  (30) 
0.3732

>  <Pharm2D_SelA>  (30) 
0.386834

>  <Pharm2D_SelD>  (30) 
-0.019926

>  <Pharm2DAvgABSel>  (30) 
0.380017

>  <QED>  (30) 
0.739718

$$$$
DB12690
     RDKit          2D

 32 36  0  0  0  0  0  0  0  0999 V2000
    2.1665   -3.9425    0.0000 C   0  0  0  0  0  0  0  0  0  0  0  0
    1.3819   -4.1974    0.0000 N   0  0  0  0  0  0  0  0  0  0  0  0
    1.1270   -4.9820    0.0000 C   0  0  0  0  0  0  0  0  0  0  0  0
    0.3020   -4.9820    0.0000 C   0  0  0  0  0  0  0  0  0  0  0  0
    0.0470   -4.1974    0.0000 N   0  0  0  0  0  0  0  0  0  0  0  0
    0.7145   -3.7125    0.0000 C   0  0  0  0  0  0  0  0  0  0  0  0
    0.7145   -2.8875    0.0000 C   0  0  0  0  0  0  0  0  0  0  0  0
    0.0000   -2.4750    0.0000 C   0  0  0  0  0  0  0  0  0  0  0  0
    0.0000   -1.6500    0.0000 C   0  0  0  0  0  0  0  0  0  0  0  0
    0.7145   -1.2375    0.0000 N   0  0  0  0  0  0  0  0  0  0  0  0
    1.4289   -1.6500    0.0000 C   0  0  0  0  0  0  0  0  0  0  0  0
    1.4289   -2.4750    0.0000 C   0  0  0  0  0  0  0  0  0  0  0  0
    0.7145   -0.4125    0.0000 C   0  0  0  0  0  0  0  0  0  0  0  0
    0.0000    0.0000    0.0000 C   0  0  0  0  0  0  0  0  0  0  0  0
   -0.7846   -0.2549    0.0000 C   0  0  0  0  0  0  0  0  0  0  0  0
   -1.2695    0.4125    0.0000 N   0  0  0  0  0  0  0  0  0  0  0  0
   -0.7846    1.0799    0.0000 N   0  0  0  0  0  0  0  0  0  0  0  0
    0.0000    0.8250    0.0000 C   0  0  0  0  0  0  0  0  0  0  0  0
    0.7145    1.2375    0.0000 N   0  0  0  0  0  0  0  0  0  0  0  0
    1.4289    0.8250    0.0000 C   0  0  0  0  0  0  0  0  0  0  0  0
    1.4289    0.0000    0.0000 N   0  0  0  0  0  0  0  0  0  0  0  0
   -0.1830   -5.6495    0.0000 C   0  0  0  0  0  0  0  0  0  0  0  0
    0.1526   -6.4032    0.0000 C   0  0  0  0  0  0  0  0  0  0  0  0
   -0.3323   -7.0706    0.0000 C   0  0  0  0  0  0  0  0  0  0  0  0
   -1.1528   -6.9844    0.0000 C   0  0  0  0  0  0  0  0  0  0  0  0
   -1.4884   -6.2307    0.0000 C   0  0  0  0  0  0  0  0  0  0  0  0
   -1.0034   -5.5632    0.0000 C   0  0  0  0  0  0  0  0  0  0  0  0
   -2.3088   -6.1445    0.0000 C   0  0  0  0  0  0  0  0  0  0  0  0
   -3.1293   -6.0582    0.0000 F   0  0  0  0  0  0  0  0  0  0  0  0
   -2.2226   -5.3240    0.0000 F   0  0  0  0  0  0  0  0  0  0  0  0
   -2.3951   -6.9649    0.0000 F   0  0  0  0  0  0  0  0  0  0  0  0
   -1.6377   -7.6518    0.0000 F   0  0  0  0  0  0  0  0  0  0  0  0
  1  2  1  0
  2  3  1  0
  3  4  2  0
  4  5  1  0
  5  6  2  0
  2  6  1  0
  6  7  1  0
  7  8  1  0
  8  9  1  0
  9 10  1  0
 10 11  1  0
 11 12  1  0
  7 12  1  0
 10 13  1  0
 13 14  2  0
 14 15  1  0
 15 16  2  0
 16 17  1  0
 17 18  1  0
 14 18  1  0
 18 19  2  0
 19 20  1  0
 20 21  2  0
 13 21  1  0
  4 22  1  0
 22 23  2  0
 23 24  1  0
 24 25  2  0
 25 26  1  0
 26 27  2  0
 22 27  1  0
 26 28  1  0
 28 29  1  0
 28 30  1  0
 28 31  1  0
 25 32  1  0
M  END
>  <ALOGPS_LOGP>  (31) 
3.8

>  <ALOGPS_LOGS>  (31) 
-4.65

>  <ALOGPS_SOLUBILITY>  (31) 
1.00e-02 g/l

>  <DATABASE_NAME>  (31) 
drugbank

>  <DRUGBANK_ID>  (31) 
DB12690

>  <DRUG_GROUPS>  (31) 
investigational

>  <EXACT_MASS>  (31) 
445.163806292

>  <FORMULA>  (31) 
C21H19F4N7

>  <GENERIC_NAME>  (31) 
LY-2584702

>  <ID>  (31) 


>  <INCHI_IDENTIFIER>  (31) 
InChI=1S/C21H19F4N7/c1-31-10-17(13-2-3-16(22)15(8-13)21(23,24)25)29-19(31)12-4-6-32(7-5-12)20-14-9-28-30-18(14)26-11-27-20/h2-3,8-12H,4-7H2,1H3,(H,26,27,28,30)

>  <INCHI_KEY>  (31) 
FYXRSVDHGLUMHB-UHFFFAOYSA-N

>  <INTERNATIONAL_BRANDS>  (31) 
nan

>  <JCHEM_ACCEPTOR_COUNT>  (31) 
5

>  <JCHEM_ATOM_COUNT>  (31) 
51

>  <JCHEM_AVERAGE_POLARIZABILITY>  (31) 
42.25416128242812

>  <JCHEM_BIOAVAILABILITY>  (31) 
1

>  <JCHEM_DONOR_COUNT>  (31) 
1

>  <JCHEM_FORMAL_CHARGE>  (31) 
0

>  <JCHEM_GHOSE_FILTER>  (31) 
1

>  <JCHEM_IUPAC>  (31) 
4-{4-[4-fluoro-3-(trifluoromethyl)phenyl]-1-methyl-1H-imidazol-2-yl}-1-{1H-pyrazolo[3,4-d]pyrimidin-4-yl}piperidine

>  <JCHEM_LOGP>  (31) 
3.9943598263333326

>  <JCHEM_MDDR_LIKE_RULE>  (31) 
0

>  <JCHEM_NUMBER_OF_RINGS>  (31) 
5

>  <JCHEM_PHYSIOLOGICAL_CHARGE>  (31) 
0

>  <JCHEM_PKA>  (31) 
nan

>  <JCHEM_PKA_STRONGEST_ACIDIC>  (31) 
9.164994489743373

>  <JCHEM_PKA_STRONGEST_BASIC>  (31) 
5.91909210484495

>  <JCHEM_POLAR_SURFACE_AREA>  (31) 
75.52000000000001

>  <JCHEM_REFRACTIVITY>  (31) 
112.47480000000002

>  <JCHEM_ROTATABLE_BOND_COUNT>  (31) 
4

>  <JCHEM_RULE_OF_FIVE>  (31) 
1

>  <JCHEM_TRADITIONAL_IUPAC>  (31) 
4-{4-[4-fluoro-3-(trifluoromethyl)phenyl]-1-methylimidazol-2-yl}-1-{1H-pyrazolo[3,4-d]pyrimidin-4-yl}piperidine

>  <JCHEM_VEBER_RULE>  (31) 
0

>  <MOLECULAR_WEIGHT>  (31) 
445.426

>  <PRODUCTS>  (31) 
nan

>  <SALTS>  (31) 
nan

>  <SECONDARY_ACCESSION_NUMBERS>  (31) 
nan

>  <SMILES>  (31) 
CN1C=C(N=C1C1CCN(CC1)C1=C2C=NNC2=NC=N1)C1=CC=C(F)C(=C1)C(F)(F)F

>  <SYNONYMS>  (31) 
nan

>  <ECFP_FP>  (31) 
<rdkit.DataStructs.cDataStructs.ExplicitBitVect object at 0xa26c50210>

>  <pki_G>  (31) 
6.129182

>  <pki_D>  (31) 
5.623085

>  <pki_B>  (31) 
5.572832

>  <pki_A>  (31) 
5.266171

>  <SelB>  (31) 
0.55635

>  <SelA>  (31) 
0.86301

>  <SelD>  (31) 
0.506097

>  <AvgABSel>  (31) 
0.70968

>  <MACCS_FP>  (31) 
[0. 0. 0. 0. 0. 0. 0. 0. 0. 0. 0. 0. 0. 0. 0. 0. 0. 0. 0. 0. 0. 0. 0. 0.
 0. 0. 0. 0. 0. 0. 0. 0. 0. 0. 0. 0. 0. 0. 1. 0. 0. 0. 1. 0. 0. 0. 0. 0.
 0. 0. 0. 0. 1. 0. 0. 0. 0. 0. 0. 0. 0. 0. 1. 0. 0. 1. 0. 0. 0. 1. 0. 0.
 0. 0. 0. 1. 0. 1. 0. 1. 1. 0. 0. 1. 0. 1. 1. 1. 0. 0. 0. 0. 0. 1. 1. 0.
 1. 0. 1. 0. 1. 1. 0. 0. 0. 1. 1. 1. 1. 0. 0. 1. 1. 0. 0. 0. 0. 0. 1. 0.
 1. 1. 1. 0. 1. 1. 0. 0. 1. 1. 0. 0. 0. 1. 1. 1. 0. 1. 1. 0. 0. 0. 1. 0.
 1. 1. 0. 1. 1. 0. 1. 1. 0. 1. 0. 0. 1. 0. 1. 0. 1. 1. 1. 1. 0. 1. 0.]

>  <MACCS_pki_G>  (31) 
5.83272

>  <MACCS_pki_D>  (31) 
6.109221

>  <MACCS_pki_B>  (31) 
5.393909

>  <MACCS_pki_A>  (31) 
5.425609

>  <MACCS_SelB>  (31) 
0.438811

>  <MACCS_SelA>  (31) 
0.407111

>  <MACCS_SelD>  (31) 
-0.276502

>  <MACCSAvgABSel>  (31) 
0.422961

>  <Pharm2D_FP>  (31) 
[0. 0. 0. ... 0. 0. 0.]

>  <Pharm2D_pki_G>  (31) 
5.592412

>  <Pharm2D_pki_D>  (31) 
5.888541

>  <Pharm2D_pki_B>  (31) 
5.481666

>  <Pharm2D_pki_A>  (31) 
5.592731

>  <Pharm2D_SelB>  (31) 
0.110746

>  <Pharm2D_SelA>  (31) 
-0.000319

>  <Pharm2D_SelD>  (31) 
-0.296129

>  <Pharm2DAvgABSel>  (31) 
0.055214

>  <QED>  (31) 
0.476298

$$$$
DB14787
     RDKit          2D

 36 40  0  0  1  0  0  0  0  0999 V2000
    6.9246    2.3479    0.0000 C   0  0  0  0  0  0  0  0  0  0  0  0
    6.2102    1.9354    0.0000 O   0  0  0  0  0  0  0  0  0  0  0  0
    5.4957    2.3479    0.0000 C   0  0  0  0  0  0  0  0  0  0  0  0
    4.7812    1.9354    0.0000 C   0  0  0  0  0  0  0  0  0  0  0  0
    4.0668    2.3479    0.0000 C   0  0  0  0  0  0  0  0  0  0  0  0
    4.0668    3.1729    0.0000 C   0  0  0  0  0  0  0  0  0  0  0  0
    4.7812    3.5854    0.0000 C   0  0  0  0  0  0  0  0  0  0  0  0
    5.4957    3.1729    0.0000 C   0  0  0  0  0  0  0  0  0  0  0  0
    6.2102    3.5854    0.0000 O   0  0  0  0  0  0  0  0  0  0  0  0
    6.9246    3.1729    0.0000 C   0  0  0  0  0  0  0  0  0  0  0  0
    7.6391    3.5854    0.0000 C   0  0  0  0  0  0  0  0  0  0  0  0
    8.3536    3.1729    0.0000 O   0  0  0  0  0  0  0  0  0  0  0  0
    9.0681    3.5854    0.0000 P   0  0  0  0  0  0  0  0  0  0  0  0
    9.7825    3.9979    0.0000 O   0  0  0  0  0  0  0  0  0  0  0  0
    8.6556    4.2999    0.0000 O   0  0  0  0  0  0  0  0  0  0  0  0
    9.4806    2.8710    0.0000 O   0  0  0  0  0  0  0  0  0  0  0  0
    7.6391    4.4104    0.0000 C   0  0  0  0  0  0  0  0  0  0  0  0
    7.2266    5.1249    0.0000 C   0  0  0  0  0  0  0  0  0  0  0  0
    8.0516    5.1249    0.0000 C   0  0  0  0  0  0  0  0  0  0  0  0
    3.3523    1.9354    0.0000 N   0  0  0  0  0  0  0  0  0  0  0  0
    3.3523    1.1104    0.0000 C   0  0  0  0  0  0  0  0  0  0  0  0
    2.6378    0.6979    0.0000 N   0  0  0  0  0  0  0  0  0  0  0  0
    1.9233    1.1104    0.0000 C   0  0  0  0  0  0  0  0  0  0  0  0
    1.9233    1.9354    0.0000 C   0  0  0  0  0  0  0  0  0  0  0  0
    1.1387    2.1904    0.0000 S   0  0  0  0  0  0  0  0  0  0  0  0
    0.6538    1.5229    0.0000 C   0  0  0  0  0  0  0  0  0  0  0  0
    1.1387    0.8555    0.0000 C   0  0  0  0  0  0  0  0  0  0  0  0
   -0.1712    1.5229    0.0000 C   0  0  0  0  0  0  0  0  0  0  0  0
   -0.5837    0.8085    0.0000 C   0  0  0  0  0  0  0  0  0  0  0  0
   -1.4087    0.8085    0.0000 C   0  0  0  0  0  0  0  0  0  0  0  0
   -1.8212    1.5229    0.0000 C   0  0  0  0  0  0  0  0  0  0  0  0
   -2.6462    1.5229    0.0000 Cl  0  0  0  0  0  0  0  0  0  0  0  0
   -1.4087    2.2374    0.0000 C   0  0  0  0  0  0  0  0  0  0  0  0
   -0.5837    2.2374    0.0000 C   0  0  0  0  0  0  0  0  0  0  0  0
    2.6378    2.3479    0.0000 C   0  0  0  0  0  0  0  0  0  0  0  0
    2.6378    3.1729    0.0000 O   0  0  0  0  0  0  0  0  0  0  0  0
  1  2  1  0
  2  3  1  0
  3  4  2  0
  4  5  1  0
  5  6  2  0
  6  7  1  0
  7  8  2  0
  3  8  1  0
  8  9  1  0
  9 10  1  0
 11 10  1  1
 11 12  1  0
 12 13  1  0
 13 14  1  0
 13 15  1  0
 13 16  2  0
 11 17  1  0
 17 18  1  0
 18 19  1  0
 17 19  1  0
  5 20  1  0
 20 21  1  0
 21 22  2  0
 22 23  1  0
 23 24  2  0
 24 25  1  0
 25 26  1  0
 26 27  2  0
 23 27  1  0
 26 28  1  0
 28 29  2  0
 29 30  1  0
 30 31  2  0
 31 32  1  0
 31 33  1  0
 33 34  2  0
 28 34  1  0
 24 35  1  0
 20 35  1  0
 35 36  2  0
M  END
>  <ALOGPS_LOGP>  (32) 
3.65

>  <ALOGPS_LOGS>  (32) 
-4.64

>  <ALOGPS_SOLUBILITY>  (32) 
1.25e-02 g/l

>  <DATABASE_NAME>  (32) 
drugbank

>  <DRUGBANK_ID>  (32) 
DB14787

>  <DRUG_GROUPS>  (32) 
investigational

>  <EXACT_MASS>  (32) 
548.0573869

>  <FORMULA>  (32) 
C24H22ClN2O7PS

>  <GENERIC_NAME>  (32) 
BMS-830216

>  <ID>  (32) 


>  <INCHI_IDENTIFIER>  (32) 
InChI=1S/C24H22ClN2O7PS/c1-32-20-10-17(8-9-19(20)33-12-21(14-2-3-14)34-35(29,30)31)27-13-26-18-11-22(36-23(18)24(27)28)15-4-6-16(25)7-5-15/h4-11,13-14,21H,2-3,12H2,1H3,(H2,29,30,31)/t21-/m0/s1

>  <INCHI_KEY>  (32) 
YDTUJCNTIMWHPJ-NRFANRHFSA-N

>  <INTERNATIONAL_BRANDS>  (32) 
nan

>  <JCHEM_ACCEPTOR_COUNT>  (32) 
7

>  <JCHEM_ATOM_COUNT>  (32) 
58

>  <JCHEM_AVERAGE_POLARIZABILITY>  (32) 
54.797200838787305

>  <JCHEM_BIOAVAILABILITY>  (32) 
1

>  <JCHEM_DONOR_COUNT>  (32) 
2

>  <JCHEM_FORMAL_CHARGE>  (32) 
0

>  <JCHEM_GHOSE_FILTER>  (32) 
0

>  <JCHEM_IUPAC>  (32) 
[(1R)-2-{4-[6-(4-chlorophenyl)-4-oxo-3H,4H-thieno[3,2-d]pyrimidin-3-yl]-2-methoxyphenoxy}-1-cyclopropylethoxy]phosphonic acid

>  <JCHEM_LOGP>  (32) 
4.478567574333334

>  <JCHEM_MDDR_LIKE_RULE>  (32) 
1

>  <JCHEM_NUMBER_OF_RINGS>  (32) 
5

>  <JCHEM_PHYSIOLOGICAL_CHARGE>  (32) 
-2

>  <JCHEM_PKA>  (32) 
6.234451623164978

>  <JCHEM_PKA_STRONGEST_ACIDIC>  (32) 
1.2056235914355622

>  <JCHEM_PKA_STRONGEST_BASIC>  (32) 
-3.8284733471085346

>  <JCHEM_POLAR_SURFACE_AREA>  (32) 
117.88999999999999

>  <JCHEM_REFRACTIVITY>  (32) 
135.8925

>  <JCHEM_ROTATABLE_BOND_COUNT>  (32) 
9

>  <JCHEM_RULE_OF_FIVE>  (32) 
0

>  <JCHEM_TRADITIONAL_IUPAC>  (32) 
(2R)-14-fluoro-2-methyl-6,9,10,19-tetraazapentacyclo[14.2.1.0^{2,6}.0^{8,18}.0^{12,17}]nonadeca-1(18),8,12(17),13,15-pentaen-11-one

>  <JCHEM_VEBER_RULE>  (32) 
0

>  <MOLECULAR_WEIGHT>  (32) 
548.93

>  <PRODUCTS>  (32) 
nan

>  <SALTS>  (32) 
nan

>  <SECONDARY_ACCESSION_NUMBERS>  (32) 
nan

>  <SMILES>  (32) 
COC1=CC(=CC=C1OC[C@H](OP(O)(O)=O)C1CC1)N1C=NC2=C(SC(=C2)C2=CC=C(Cl)C=C2)C1=O

>  <SYNONYMS>  (32) 
nan

>  <ECFP_FP>  (32) 
<rdkit.DataStructs.cDataStructs.ExplicitBitVect object at 0xa26d2eee0>

>  <pki_G>  (32) 
6.124949

>  <pki_D>  (32) 
5.543632

>  <pki_B>  (32) 
5.510182

>  <pki_A>  (32) 
5.017943

>  <SelB>  (32) 
0.614768

>  <SelA>  (32) 
1.107006

>  <SelD>  (32) 
0.581318

>  <AvgABSel>  (32) 
0.860887

>  <MACCS_FP>  (32) 
[0. 0. 0. 0. 0. 0. 0. 0. 0. 0. 0. 0. 0. 0. 0. 0. 0. 0. 0. 0. 0. 0. 1. 0.
 0. 0. 0. 0. 0. 1. 0. 0. 0. 0. 0. 0. 1. 0. 0. 0. 0. 0. 0. 1. 0. 0. 0. 0.
 1. 0. 0. 0. 0. 0. 0. 0. 0. 0. 0. 0. 0. 0. 1. 0. 0. 1. 0. 0. 0. 1. 0. 0.
 1. 0. 0. 1. 0. 1. 0. 0. 1. 1. 0. 1. 0. 1. 0. 1. 1. 0. 0. 1. 1. 1. 0. 0.
 1. 1. 1. 0. 0. 1. 1. 1. 0. 1. 1. 1. 0. 1. 1. 0. 1. 1. 0. 0. 0. 1. 0. 0.
 1. 1. 1. 0. 1. 1. 1. 1. 1. 1. 1. 1. 1. 1. 1. 1. 1. 1. 0. 1. 1. 0. 1. 1.
 1. 1. 1. 1. 1. 0. 1. 0. 1. 1. 1. 1. 1. 1. 1. 1. 1. 1. 1. 1. 1. 1. 0.]

>  <MACCS_pki_G>  (32) 
5.906476

>  <MACCS_pki_D>  (32) 
5.787783

>  <MACCS_pki_B>  (32) 
5.474584

>  <MACCS_pki_A>  (32) 
5.861167

>  <MACCS_SelB>  (32) 
0.431892

>  <MACCS_SelA>  (32) 
0.045309

>  <MACCS_SelD>  (32) 
0.118693

>  <MACCSAvgABSel>  (32) 
0.238601

>  <Pharm2D_FP>  (32) 
[0. 0. 0. ... 0. 0. 0.]

>  <Pharm2D_pki_G>  (32) 
5.882935

>  <Pharm2D_pki_D>  (32) 
5.617374

>  <Pharm2D_pki_B>  (32) 
5.299837

>  <Pharm2D_pki_A>  (32) 
5.766188

>  <Pharm2D_SelB>  (32) 
0.583098

>  <Pharm2D_SelA>  (32) 
0.116747

>  <Pharm2D_SelD>  (32) 
0.265562

>  <Pharm2DAvgABSel>  (32) 
0.349923

>  <QED>  (32) 
0.279033

$$$$
DB00926
     RDKit          2D

 26 26  0  0  0  0  0  0  0  0999 V2000
    3.0791   -4.7439    0.0000 O   0  0  0  0  0  0  0  0  0  0  0  0
    6.6515    3.9188    0.0000 O   0  0  0  0  0  0  0  0  0  0  0  0
    5.2224    3.9188    0.0000 O   0  0  0  0  0  0  0  0  0  0  0  0
    2.3645   -2.6813    0.0000 C   0  0  0  0  0  0  0  0  0  0  0  0
    3.0791   -2.2688    0.0000 C   0  0  0  0  0  0  0  0  0  0  0  0
    2.3645   -3.5063    0.0000 C   0  0  0  0  0  0  0  0  0  0  0  0
    3.7935   -2.6813    0.0000 C   0  0  0  0  0  0  0  0  0  0  0  0
    3.0791   -3.9188    0.0000 C   0  0  0  0  0  0  0  0  0  0  0  0
    3.7935   -3.5063    0.0000 C   0  0  0  0  0  0  0  0  0  0  0  0
    1.6500   -2.2688    0.0000 C   0  0  0  0  0  0  0  0  0  0  0  0
    3.0791   -1.4438    0.0000 C   0  0  0  0  0  0  0  0  0  0  0  0
    1.6500   -3.9188    0.0000 C   0  0  0  0  0  0  0  0  0  0  0  0
    4.5080   -2.2688    0.0000 C   0  0  0  0  0  0  0  0  0  0  0  0
    3.7935   -1.0313    0.0000 C   0  0  0  0  0  0  0  0  0  0  0  0
    3.7935   -0.2063    0.0000 C   0  0  0  0  0  0  0  0  0  0  0  0
    3.7935   -5.1564    0.0000 C   0  0  0  0  0  0  0  0  0  0  0  0
    3.0791    0.2063    0.0000 C   0  0  0  0  0  0  0  0  0  0  0  0
    4.5080    0.2063    0.0000 C   0  0  0  0  0  0  0  0  0  0  0  0
    4.5080    1.0313    0.0000 C   0  0  0  0  0  0  0  0  0  0  0  0
    5.2224    1.4438    0.0000 C   0  0  0  0  0  0  0  0  0  0  0  0
    5.2224    2.2688    0.0000 C   0  0  0  0  0  0  0  0  0  0  0  0
    4.5080    2.6813    0.0000 C   0  0  0  0  0  0  0  0  0  0  0  0
    5.9370    2.6813    0.0000 C   0  0  0  0  0  0  0  0  0  0  0  0
    5.9370    3.5063    0.0000 C   0  0  0  0  0  0  0  0  0  0  0  0
    6.6515    4.7439    0.0000 C   0  0  0  0  0  0  0  0  0  0  0  0
    7.3659    5.1564    0.0000 C   0  0  0  0  0  0  0  0  0  0  0  0
  1  8  1  0
  1 16  1  0
  2 24  1  0
  2 25  1  0
  3 24  2  0
  4  5  2  0
  4  6  1  0
  4 10  1  0
  5  7  1  0
  5 11  1  0
  6  8  2  0
  6 12  1  0
  7  9  2  0
  7 13  1  0
  8  9  1  0
 11 14  2  3
 14 15  1  0
 15 17  1  0
 15 18  2  3
 18 19  1  0
 19 20  2  3
 20 21  1  0
 21 22  1  0
 21 23  2  3
 23 24  1  0
 25 26  1  0
M  END
>  <ALOGPS_LOGP>  (33) 
6.32

>  <ALOGPS_LOGS>  (33) 
-5.94

>  <ALOGPS_SOLUBILITY>  (33) 
4.05e-04 g/l

>  <DATABASE_NAME>  (33) 
drugbank

>  <DRUGBANK_ID>  (33) 
DB00926

>  <DRUG_GROUPS>  (33) 
withdrawn

>  <EXACT_MASS>  (33) 
354.219494826

>  <FORMULA>  (33) 
C23H30O3

>  <GENERIC_NAME>  (33) 
Etretinate

>  <ID>  (33) 
926

>  <INCHI_IDENTIFIER>  (33) 
InChI=1S/C23H30O3/c1-8-26-23(24)14-17(3)11-9-10-16(2)12-13-21-18(4)15-22(25-7)20(6)19(21)5/h9-15H,8H2,1-7H3

>  <INCHI_KEY>  (33) 
HQMNCQVAMBCHCO-UHFFFAOYSA-N

>  <INTERNATIONAL_BRANDS>  (33) 
Tigason

>  <JCHEM_ACCEPTOR_COUNT>  (33) 
2

>  <JCHEM_ATOM_COUNT>  (33) 
nan

>  <JCHEM_AVERAGE_POLARIZABILITY>  (33) 
42.977397010032746

>  <JCHEM_BIOAVAILABILITY>  (33) 
1

>  <JCHEM_DONOR_COUNT>  (33) 
0

>  <JCHEM_FORMAL_CHARGE>  (33) 
0

>  <JCHEM_GHOSE_FILTER>  (33) 
0

>  <JCHEM_IUPAC>  (33) 
ethyl 9-(4-methoxy-2,3,6-trimethylphenyl)-3,7-dimethylnona-2,4,6,8-tetraenoate

>  <JCHEM_LOGP>  (33) 
6.323084069666667

>  <JCHEM_MDDR_LIKE_RULE>  (33) 
0

>  <JCHEM_NUMBER_OF_RINGS>  (33) 
1

>  <JCHEM_PHYSIOLOGICAL_CHARGE>  (33) 
0

>  <JCHEM_PKA>  (33) 
nan

>  <JCHEM_PKA_STRONGEST_ACIDIC>  (33) 
nan

>  <JCHEM_PKA_STRONGEST_BASIC>  (33) 
-4.815754728353506

>  <JCHEM_POLAR_SURFACE_AREA>  (33) 
35.53

>  <JCHEM_REFRACTIVITY>  (33) 
113.6842

>  <JCHEM_ROTATABLE_BOND_COUNT>  (33) 
8

>  <JCHEM_RULE_OF_FIVE>  (33) 
0

>  <JCHEM_TRADITIONAL_IUPAC>  (33) 
etretinate

>  <JCHEM_VEBER_RULE>  (33) 
1

>  <MOLECULAR_WEIGHT>  (33) 
354.4825

>  <PRODUCTS>  (33) 
nan

>  <SALTS>  (33) 
nan

>  <SECONDARY_ACCESSION_NUMBERS>  (33) 
APRD00966

>  <SMILES>  (33) 
CCOC(=O)C=C(C)C=CC=C(C)C=CC1=C(C)C(C)=C(OC)C=C1C

>  <SYNONYMS>  (33) 
Etretinate; etretinato

>  <ECFP_FP>  (33) 
<rdkit.DataStructs.cDataStructs.ExplicitBitVect object at 0xa26640e90>

>  <pki_G>  (33) 
6.11601

>  <pki_D>  (33) 
5.579491

>  <pki_B>  (33) 
5.49763

>  <pki_A>  (33) 
5.312315

>  <SelB>  (33) 
0.618381

>  <SelA>  (33) 
0.803695

>  <SelD>  (33) 
0.536519

>  <AvgABSel>  (33) 
0.711038

>  <MACCS_FP>  (33) 
[0. 0. 0. 0. 0. 0. 0. 0. 0. 0. 0. 0. 0. 0. 0. 0. 0. 0. 0. 0. 0. 0. 0. 0.
 0. 0. 0. 0. 0. 0. 0. 0. 0. 0. 0. 0. 0. 0. 0. 0. 0. 0. 0. 0. 0. 0. 0. 0.
 0. 0. 1. 0. 0. 0. 0. 0. 0. 0. 0. 0. 0. 0. 0. 0. 0. 0. 0. 0. 0. 0. 0. 0.
 0. 0. 0. 0. 1. 0. 0. 0. 0. 0. 0. 0. 0. 0. 0. 0. 0. 0. 0. 0. 0. 1. 0. 0.
 0. 0. 0. 1. 0. 0. 0. 0. 0. 0. 0. 0. 0. 1. 0. 0. 0. 1. 1. 0. 0. 0. 0. 0.
 0. 0. 0. 1. 0. 0. 1. 1. 0. 0. 0. 0. 0. 0. 0. 0. 0. 0. 0. 0. 0. 1. 0. 1.
 1. 0. 1. 0. 0. 1. 1. 0. 1. 1. 1. 1. 0. 1. 0. 1. 1. 0. 1. 1. 1. 1. 0.]

>  <MACCS_pki_G>  (33) 
5.833516

>  <MACCS_pki_D>  (33) 
5.989836

>  <MACCS_pki_B>  (33) 
5.776372

>  <MACCS_pki_A>  (33) 
5.833207

>  <MACCS_SelB>  (33) 
0.057143

>  <MACCS_SelA>  (33) 
0.000308

>  <MACCS_SelD>  (33) 
-0.156321

>  <MACCSAvgABSel>  (33) 
0.028726

>  <Pharm2D_FP>  (33) 
[0. 0. 0. ... 0. 0. 0.]

>  <Pharm2D_pki_G>  (33) 
5.825474

>  <Pharm2D_pki_D>  (33) 
5.579377

>  <Pharm2D_pki_B>  (33) 
5.338176

>  <Pharm2D_pki_A>  (33) 
4.803881

>  <Pharm2D_SelB>  (33) 
0.487298

>  <Pharm2D_SelA>  (33) 
1.021593

>  <Pharm2D_SelD>  (33) 
0.246096

>  <Pharm2DAvgABSel>  (33) 
0.754445

>  <QED>  (33) 
0.360702

$$$$
DB15396
     RDKit          2D

 39 43  0  0  0  0  0  0  0  0999 V2000
    6.4041   -8.2809    0.0000 C   0  0  0  0  0  0  0  0  0  0  0  0
    5.5971   -8.4525    0.0000 N   0  0  0  0  0  0  0  0  0  0  0  0
    5.3422   -9.2371    0.0000 C   0  0  0  0  0  0  0  0  0  0  0  0
    4.5352   -9.4086    0.0000 C   0  0  0  0  0  0  0  0  0  0  0  0
    3.9832   -8.7955    0.0000 N   0  0  0  0  0  0  0  0  0  0  0  0
    3.1762   -8.9671    0.0000 C   0  0  0  0  0  0  0  0  0  0  0  0
    2.6242   -8.3540    0.0000 C   0  0  0  0  0  0  0  0  0  0  0  0
    1.8172   -8.5255    0.0000 C   0  0  0  0  0  0  0  0  0  0  0  0
    1.2652   -7.9124    0.0000 C   0  0  0  0  0  0  0  0  0  0  0  0
    1.5201   -7.1278    0.0000 C   0  0  0  0  0  0  0  0  0  0  0  0
    0.9681   -6.5147    0.0000 N   0  0  0  0  0  0  0  0  0  0  0  0
    1.2230   -5.7301    0.0000 C   0  0  0  0  0  0  0  0  0  0  0  0
    2.0300   -5.5585    0.0000 O   0  0  0  0  0  0  0  0  0  0  0  0
    0.6710   -5.1170    0.0000 C   0  0  0  0  0  0  0  0  0  0  0  0
   -0.1360   -5.2885    0.0000 C   0  0  0  0  0  0  0  0  0  0  0  0
   -0.6880   -4.6754    0.0000 C   0  0  0  0  0  0  0  0  0  0  0  0
   -0.4331   -3.8908    0.0000 C   0  0  0  0  0  0  0  0  0  0  0  0
   -0.9851   -3.2777    0.0000 C   0  0  0  0  0  0  0  0  0  0  0  0
    0.3739   -3.7192    0.0000 C   0  0  0  0  0  0  0  0  0  0  0  0
    0.9259   -4.3323    0.0000 C   0  0  0  0  0  0  0  0  0  0  0  0
    0.6288   -2.9346    0.0000 C   0  0  0  0  0  0  0  0  0  0  0  0
    0.8838   -2.1500    0.0000 C   0  0  0  0  0  0  0  0  0  0  0  0
    1.1387   -1.3654    0.0000 C   0  0  0  0  0  0  0  0  0  0  0  0
    0.6538   -0.6979    0.0000 N   0  0  0  0  0  0  0  0  0  0  0  0
    1.1387   -0.0305    0.0000 N   0  0  0  0  0  0  0  0  0  0  0  0
    1.9233   -0.2854    0.0000 C   0  0  0  0  0  0  0  0  0  0  0  0
    2.6378    0.1271    0.0000 C   0  0  0  0  0  0  0  0  0  0  0  0
    3.3523   -0.2854    0.0000 C   0  0  0  0  0  0  0  0  0  0  0  0
    3.3523   -1.1104    0.0000 C   0  0  0  0  0  0  0  0  0  0  0  0
    2.6378   -1.5229    0.0000 C   0  0  0  0  0  0  0  0  0  0  0  0
    1.9233   -1.1104    0.0000 N   0  0  0  0  0  0  0  0  0  0  0  0
    2.3271   -6.9562    0.0000 C   0  0  0  0  0  0  0  0  0  0  0  0
    2.8791   -7.5693    0.0000 C   0  0  0  0  0  0  0  0  0  0  0  0
    1.5623   -9.3101    0.0000 C   0  0  0  0  0  0  0  0  0  0  0  0
    1.3073  -10.0947    0.0000 F   0  0  0  0  0  0  0  0  0  0  0  0
    0.7777   -9.0552    0.0000 F   0  0  0  0  0  0  0  0  0  0  0  0
    2.3469   -9.5650    0.0000 F   0  0  0  0  0  0  0  0  0  0  0  0
    4.2381   -8.0109    0.0000 C   0  0  0  0  0  0  0  0  0  0  0  0
    5.0451   -7.8394    0.0000 C   0  0  0  0  0  0  0  0  0  0  0  0
  1  2  1  0
  2  3  1  0
  3  4  1  0
  4  5  1  0
  5  6  1  0
  6  7  1  0
  7  8  2  0
  8  9  1  0
  9 10  2  0
 10 11  1  0
 11 12  1  0
 12 13  2  0
 12 14  1  0
 14 15  2  0
 15 16  1  0
 16 17  2  0
 17 18  1  0
 17 19  1  0
 19 20  2  0
 14 20  1  0
 19 21  1  0
 21 22  3  0
 22 23  1  0
 23 24  2  0
 24 25  1  0
 25 26  2  0
 26 27  1  0
 27 28  2  0
 28 29  1  0
 29 30  2  0
 30 31  1  0
 23 31  1  0
 26 31  1  0
 10 32  1  0
 32 33  2  0
  7 33  1  0
  8 34  1  0
 34 35  1  0
 34 36  1  0
 34 37  1  0
  5 38  1  0
 38 39  1  0
  2 39  1  0
M  END
>  <ALOGPS_LOGP>  (34) 
4.08

>  <ALOGPS_LOGS>  (34) 
-5.26

>  <ALOGPS_SOLUBILITY>  (34) 
2.90e-03 g/l

>  <DATABASE_NAME>  (34) 
drugbank

>  <DRUGBANK_ID>  (34) 
DB15396

>  <DRUG_GROUPS>  (34) 
investigational

>  <EXACT_MASS>  (34) 
532.219844002

>  <FORMULA>  (34) 
C29H27F3N6O

>  <GENERIC_NAME>  (34) 
PF-114

>  <ID>  (34) 


>  <INCHI_IDENTIFIER>  (34) 
InChI=1S/C29H27F3N6O/c1-20-6-7-22(17-21(20)9-11-27-35-34-26-5-3-4-12-38(26)27)28(39)33-24-10-8-23(25(18-24)29(30,31)32)19-37-15-13-36(2)14-16-37/h3-8,10,12,17-18H,13-16,19H2,1-2H3,(H,33,39)

>  <INCHI_KEY>  (34) 
SLIVDYMORZGPLW-UHFFFAOYSA-N

>  <INTERNATIONAL_BRANDS>  (34) 
nan

>  <JCHEM_ACCEPTOR_COUNT>  (34) 
5

>  <JCHEM_ATOM_COUNT>  (34) 
66

>  <JCHEM_AVERAGE_POLARIZABILITY>  (34) 
55.11358939383059

>  <JCHEM_BIOAVAILABILITY>  (34) 
1

>  <JCHEM_DONOR_COUNT>  (34) 
1

>  <JCHEM_FORMAL_CHARGE>  (34) 
0

>  <JCHEM_GHOSE_FILTER>  (34) 
0

>  <JCHEM_IUPAC>  (34) 
4-methyl-N-{4-[(4-methylpiperazin-1-yl)methyl]-3-(trifluoromethyl)phenyl}-3-(2-{[1,2,4]triazolo[4,3-a]pyridin-3-yl}ethynyl)benzamide

>  <JCHEM_LOGP>  (34) 
4.569383030666666

>  <JCHEM_MDDR_LIKE_RULE>  (34) 
1

>  <JCHEM_NUMBER_OF_RINGS>  (34) 
5

>  <JCHEM_PHYSIOLOGICAL_CHARGE>  (34) 
1

>  <JCHEM_PKA>  (34) 
nan

>  <JCHEM_PKA_STRONGEST_ACIDIC>  (34) 
15.36256370566928

>  <JCHEM_PKA_STRONGEST_BASIC>  (34) 
7.624670378308542

>  <JCHEM_POLAR_SURFACE_AREA>  (34) 
65.77

>  <JCHEM_REFRACTIVITY>  (34) 
144.6076

>  <JCHEM_ROTATABLE_BOND_COUNT>  (34) 
7

>  <JCHEM_RULE_OF_FIVE>  (34) 
0

>  <JCHEM_TRADITIONAL_IUPAC>  (34) 
(2R)-14-fluoro-2-methyl-6,9,10,19-tetraazapentacyclo[14.2.1.0^{2,6}.0^{8,18}.0^{12,17}]nonadeca-1(18),8,12(17),13,15-pentaen-11-one

>  <JCHEM_VEBER_RULE>  (34) 
0

>  <MOLECULAR_WEIGHT>  (34) 
532.571

>  <PRODUCTS>  (34) 
nan

>  <SALTS>  (34) 
nan

>  <SECONDARY_ACCESSION_NUMBERS>  (34) 
nan

>  <SMILES>  (34) 
CN1CCN(CC2=C(C=C(NC(=O)C3=CC=C(C)C(=C3)C#CC3=NN=C4C=CC=CN34)C=C2)C(F)(F)F)CC1

>  <SYNONYMS>  (34) 
nan

>  <ECFP_FP>  (34) 
<rdkit.DataStructs.cDataStructs.ExplicitBitVect object at 0xa26d69e40>

>  <pki_G>  (34) 
6.114955

>  <pki_D>  (34) 
5.59337

>  <pki_B>  (34) 
5.385181

>  <pki_A>  (34) 
5.515423

>  <SelB>  (34) 
0.729774

>  <SelA>  (34) 
0.599532

>  <SelD>  (34) 
0.521584

>  <AvgABSel>  (34) 
0.664653

>  <MACCS_FP>  (34) 
[0. 0. 0. 0. 0. 0. 0. 0. 0. 0. 0. 0. 0. 0. 0. 0. 0. 1. 0. 0. 0. 0. 0. 0.
 0. 0. 0. 0. 0. 0. 0. 0. 0. 0. 0. 0. 0. 0. 1. 0. 0. 0. 1. 0. 0. 0. 0. 0.
 0. 0. 0. 0. 1. 0. 0. 0. 0. 0. 0. 0. 0. 0. 0. 0. 0. 1. 0. 0. 0. 0. 0. 0.
 0. 0. 0. 1. 0. 1. 0. 1. 1. 0. 0. 1. 0. 1. 1. 0. 0. 0. 0. 0. 1. 1. 1. 0.
 1. 0. 1. 0. 1. 1. 0. 0. 0. 1. 1. 1. 0. 0. 1. 1. 1. 0. 0. 1. 1. 1. 1. 0.
 1. 1. 1. 0. 1. 1. 0. 0. 1. 1. 0. 0. 0. 1. 1. 1. 0. 1. 1. 0. 0. 0. 1. 0.
 1. 1. 0. 1. 1. 1. 1. 1. 0. 1. 1. 1. 1. 0. 1. 0. 1. 1. 1. 1. 1. 1. 0.]

>  <MACCS_pki_G>  (34) 
6.018846

>  <MACCS_pki_D>  (34) 
6.076087

>  <MACCS_pki_B>  (34) 
5.277754

>  <MACCS_pki_A>  (34) 
5.702026

>  <MACCS_SelB>  (34) 
0.741093

>  <MACCS_SelA>  (34) 
0.316821

>  <MACCS_SelD>  (34) 
-0.05724

>  <MACCSAvgABSel>  (34) 
0.528957

>  <Pharm2D_FP>  (34) 
[0. 0. 0. ... 0. 0. 0.]

>  <Pharm2D_pki_G>  (34) 
5.684972

>  <Pharm2D_pki_D>  (34) 
5.565093

>  <Pharm2D_pki_B>  (34) 
5.411563

>  <Pharm2D_pki_A>  (34) 
5.945234

>  <Pharm2D_SelB>  (34) 
0.273409

>  <Pharm2D_SelA>  (34) 
-0.260262

>  <Pharm2D_SelD>  (34) 
0.11988

>  <Pharm2DAvgABSel>  (34) 
0.006574

>  <QED>  (34) 
0.393599

$$$$
DB15149
     RDKit          2D

 31 34  0  0  1  0  0  0  0  0999 V2000
   -0.3141    5.1188    0.0000 C   0  0  0  0  0  0  0  0  0  0  0  0
   -0.0592    4.3342    0.0000 O   0  0  0  0  0  0  0  0  0  0  0  0
   -0.6112    3.7211    0.0000 C   0  0  0  0  0  0  0  0  0  0  0  0
   -0.3563    2.9365    0.0000 C   0  0  0  0  0  0  0  0  0  0  0  0
   -0.9083    2.3234    0.0000 C   0  0  0  0  0  0  0  0  0  0  0  0
   -1.7153    2.4949    0.0000 C   0  0  0  0  0  0  0  0  0  0  0  0
   -1.9702    3.2795    0.0000 C   0  0  0  0  0  0  0  0  0  0  0  0
   -2.7772    3.4510    0.0000 O   0  0  0  0  0  0  0  0  0  0  0  0
   -3.0321    4.2357    0.0000 C   0  0  0  0  0  0  0  0  0  0  0  0
   -1.4182    3.8926    0.0000 C   0  0  0  0  0  0  0  0  0  0  0  0
   -0.6534    1.5387    0.0000 C   0  0  0  0  0  0  0  0  0  0  0  0
   -0.3984    0.7541    0.0000 C   0  0  0  0  0  0  0  0  0  0  0  0
   -0.1435   -0.0305    0.0000 C   0  0  0  0  0  0  0  0  0  0  0  0
   -0.6284   -0.6979    0.0000 N   0  0  0  0  0  0  0  0  0  0  0  0
   -0.1435   -1.3654    0.0000 N   0  0  0  0  0  0  0  0  0  0  0  0
   -0.3984   -2.1500    0.0000 C   0  0  0  0  0  0  0  0  0  0  0  0
    0.0865   -2.8174    0.0000 C   0  0  0  0  0  0  0  0  0  0  0  0
   -0.3984   -3.4849    0.0000 C   0  0  0  0  0  0  0  0  0  0  0  0
   -1.1831   -3.2299    0.0000 N   0  0  0  0  0  0  0  0  0  0  0  0
   -1.1831   -2.4049    0.0000 C   0  0  0  0  0  0  0  0  0  0  0  0
   -1.8505   -3.7149    0.0000 C   0  0  0  0  0  0  0  0  0  0  0  0
   -1.7643   -4.5353    0.0000 O   0  0  0  0  0  0  0  0  0  0  0  0
   -2.6042   -3.3793    0.0000 C   0  0  0  0  0  0  0  0  0  0  0  0
   -3.2716   -3.8642    0.0000 C   0  0  0  0  0  0  0  0  0  0  0  0
    0.6411   -1.1104    0.0000 C   0  0  0  0  0  0  0  0  0  0  0  0
    0.6411   -0.2854    0.0000 C   0  0  0  0  0  0  0  0  0  0  0  0
    1.3556    0.1271    0.0000 C   0  0  0  0  0  0  0  0  0  0  0  0
    1.3556    0.9521    0.0000 N   0  0  0  0  0  0  0  0  0  0  0  0
    2.0701   -0.2854    0.0000 N   0  0  0  0  0  0  0  0  0  0  0  0
    2.0701   -1.1104    0.0000 C   0  0  0  0  0  0  0  0  0  0  0  0
    1.3556   -1.5229    0.0000 N   0  0  0  0  0  0  0  0  0  0  0  0
  1  2  1  0
  2  3  1  0
  3  4  2  0
  4  5  1  0
  5  6  2  0
  6  7  1  0
  7  8  1  0
  8  9  1  0
  7 10  2  0
  3 10  1  0
  5 11  1  0
 11 12  3  0
 12 13  1  0
 13 14  2  0
 14 15  1  0
 16 15  1  1
 16 17  1  0
 17 18  1  0
 18 19  1  0
 19 20  1  0
 16 20  1  0
 19 21  1  0
 21 22  2  0
 21 23  1  0
 23 24  2  0
 15 25  1  0
 25 26  2  0
 13 26  1  0
 26 27  1  0
 27 28  1  0
 27 29  2  0
 29 30  1  0
 30 31  2  0
 25 31  1  0
M  END
>  <ALOGPS_LOGP>  (35) 
1.79

>  <ALOGPS_LOGS>  (35) 
-4.02

>  <ALOGPS_SOLUBILITY>  (35) 
3.98e-02 g/l

>  <DATABASE_NAME>  (35) 
drugbank

>  <DRUGBANK_ID>  (35) 
DB15149

>  <DRUG_GROUPS>  (35) 
investigational

>  <EXACT_MASS>  (35) 
418.175338592

>  <FORMULA>  (35) 
C22H22N6O3

>  <GENERIC_NAME>  (35) 
Futibatinib

>  <ID>  (35) 


>  <INCHI_IDENTIFIER>  (35) 
InChI=1S/C22H22N6O3/c1-4-19(29)27-8-7-15(12-27)28-22-20(21(23)24-13-25-22)18(26-28)6-5-14-9-16(30-2)11-17(10-14)31-3/h4,9-11,13,15H,1,7-8,12H2,2-3H3,(H2,23,24,25)/t15-/m0/s1

>  <INCHI_KEY>  (35) 
KEIPNCCJPRMIAX-HNNXBMFYSA-N

>  <INTERNATIONAL_BRANDS>  (35) 
nan

>  <JCHEM_ACCEPTOR_COUNT>  (35) 
7

>  <JCHEM_ATOM_COUNT>  (35) 
53

>  <JCHEM_AVERAGE_POLARIZABILITY>  (35) 
45.57126560168008

>  <JCHEM_BIOAVAILABILITY>  (35) 
1

>  <JCHEM_DONOR_COUNT>  (35) 
1

>  <JCHEM_FORMAL_CHARGE>  (35) 
0

>  <JCHEM_GHOSE_FILTER>  (35) 
1

>  <JCHEM_IUPAC>  (35) 
1-[(3S)-3-{4-amino-3-[2-(3,5-dimethoxyphenyl)ethynyl]-1H-pyrazolo[3,4-d]pyrimidin-1-yl}pyrrolidin-1-yl]prop-2-en-1-one

>  <JCHEM_LOGP>  (35) 
1.7710779086666675

>  <JCHEM_MDDR_LIKE_RULE>  (35) 
1

>  <JCHEM_NUMBER_OF_RINGS>  (35) 
4

>  <JCHEM_PHYSIOLOGICAL_CHARGE>  (35) 
0

>  <JCHEM_PKA>  (35) 
nan

>  <JCHEM_PKA_STRONGEST_ACIDIC>  (35) 
19.219631061432874

>  <JCHEM_PKA_STRONGEST_BASIC>  (35) 
2.578609436551579

>  <JCHEM_POLAR_SURFACE_AREA>  (35) 
108.39

>  <JCHEM_REFRACTIVITY>  (35) 
122.81549999999996

>  <JCHEM_ROTATABLE_BOND_COUNT>  (35) 
6

>  <JCHEM_RULE_OF_FIVE>  (35) 
1

>  <JCHEM_TRADITIONAL_IUPAC>  (35) 
(2R)-14-fluoro-2-methyl-6,9,10,19-tetraazapentacyclo[14.2.1.0^{2,6}.0^{8,18}.0^{12,17}]nonadeca-1(18),8,12(17),13,15-pentaen-11-one

>  <JCHEM_VEBER_RULE>  (35) 
0

>  <MOLECULAR_WEIGHT>  (35) 
418.457

>  <PRODUCTS>  (35) 
nan

>  <SALTS>  (35) 
nan

>  <SECONDARY_ACCESSION_NUMBERS>  (35) 
nan

>  <SMILES>  (35) 
COC1=CC(=CC(OC)=C1)C#CC1=NN([C@H]2CCN(C2)C(=O)C=C)C2=C1C(N)=NC=N2

>  <SYNONYMS>  (35) 
nan

>  <ECFP_FP>  (35) 
<rdkit.DataStructs.cDataStructs.ExplicitBitVect object at 0xa26d543a0>

>  <pki_G>  (35) 
6.112556

>  <pki_D>  (35) 
5.586716

>  <pki_B>  (35) 
5.507714

>  <pki_A>  (35) 
5.282384

>  <SelB>  (35) 
0.604842

>  <SelA>  (35) 
0.830172

>  <SelD>  (35) 
0.52584

>  <AvgABSel>  (35) 
0.717507

>  <MACCS_FP>  (35) 
[0. 0. 0. 0. 0. 0. 0. 0. 0. 0. 0. 0. 0. 0. 0. 0. 0. 1. 0. 0. 0. 0. 0. 0.
 0. 0. 0. 0. 0. 0. 0. 0. 0. 0. 1. 0. 0. 0. 1. 0. 0. 0. 0. 0. 0. 0. 0. 0.
 0. 0. 0. 0. 1. 0. 0. 0. 0. 0. 0. 0. 0. 0. 1. 0. 0. 1. 0. 0. 0. 0. 0. 0.
 0. 0. 0. 1. 0. 1. 0. 1. 1. 0. 0. 1. 1. 1. 1. 0. 0. 1. 0. 0. 1. 1. 1. 0.
 1. 0. 1. 1. 1. 1. 0. 0. 0. 1. 0. 0. 0. 0. 1. 1. 0. 1. 0. 0. 0. 1. 1. 0.
 1. 1. 1. 0. 1. 1. 1. 1. 0. 1. 0. 0. 0. 1. 0. 1. 0. 1. 1. 0. 0. 0. 1. 1.
 0. 1. 1. 1. 1. 1. 0. 1. 1. 1. 1. 0. 1. 1. 1. 1. 1. 1. 1. 1. 1. 1. 0.]

>  <MACCS_pki_G>  (35) 
5.711813

>  <MACCS_pki_D>  (35) 
5.918453

>  <MACCS_pki_B>  (35) 
5.581036

>  <MACCS_pki_A>  (35) 
5.44071

>  <MACCS_SelB>  (35) 
0.130777

>  <MACCS_SelA>  (35) 
0.271103

>  <MACCS_SelD>  (35) 
-0.206639

>  <MACCSAvgABSel>  (35) 
0.20094

>  <Pharm2D_FP>  (35) 
[0. 0. 0. ... 0. 0. 0.]

>  <Pharm2D_pki_G>  (35) 
5.800833

>  <Pharm2D_pki_D>  (35) 
5.677054

>  <Pharm2D_pki_B>  (35) 
5.454184

>  <Pharm2D_pki_A>  (35) 
5.889728

>  <Pharm2D_SelB>  (35) 
0.346649

>  <Pharm2D_SelA>  (35) 
-0.088895

>  <Pharm2D_SelD>  (35) 
0.123779

>  <Pharm2DAvgABSel>  (35) 
0.128877

>  <QED>  (35) 
0.508173

$$$$
DB00459
     RDKit          2D

 24 24  0  0  0  0  0  0  0  0999 V2000
   -2.3125    1.8250    0.0000 C   0  0  0  0  0  0  0  0  0  0  0  0
   -3.0270    1.4125    0.0000 C   0  0  0  0  0  0  0  0  0  0  0  0
   -3.0270    0.5875    0.0000 C   0  0  0  0  0  0  0  0  0  0  0  0
   -2.3125    0.1750    0.0000 C   0  0  0  0  0  0  0  0  0  0  0  0
   -1.5980    0.5875    0.0000 C   0  0  0  0  0  0  0  0  0  0  0  0
   -1.5980    1.4125    0.0000 C   0  0  0  0  0  0  0  0  0  0  0  0
   -2.3125    2.6500    0.0000 C   0  0  0  0  0  0  0  0  0  0  0  0
   -3.7414    1.8250    0.0000 C   0  0  0  0  0  0  0  0  0  0  0  0
   -4.4559    0.5875    0.0000 C   0  0  0  0  0  0  0  0  0  0  0  0
   -0.8836    0.1750    0.0000 C   0  0  0  0  0  0  0  0  0  0  0  0
   -0.8836    1.8250    0.0000 C   0  0  0  0  0  0  0  0  0  0  0  0
   -0.1691    1.4125    0.0000 C   0  0  0  0  0  0  0  0  0  0  0  0
    1.2599    1.4125    0.0000 C   0  0  0  0  0  0  0  0  0  0  0  0
    1.9743    1.8250    0.0000 C   0  0  0  0  0  0  0  0  0  0  0  0
    2.6888    1.4125    0.0000 C   0  0  0  0  0  0  0  0  0  0  0  0
    4.1177    1.4125    0.0000 C   0  0  0  0  0  0  0  0  0  0  0  0
   -3.7414    0.1750    0.0000 O   0  0  0  0  0  0  0  0  0  0  0  0
    4.8322    2.6500    0.0000 O   0  0  0  0  0  0  0  0  0  0  0  0
    4.8322    1.8250    0.0000 C   0  0  0  0  0  0  0  0  0  0  0  0
    5.5467    1.4125    0.0000 O   0  0  0  0  0  0  0  0  0  0  0  0
    0.5454    1.8250    0.0000 C   0  0  0  0  0  0  0  0  0  0  0  0
    0.5454    2.6500    0.0000 C   0  0  0  0  0  0  0  0  0  0  0  0
    3.4033    1.8250    0.0000 C   0  0  0  0  0  0  0  0  0  0  0  0
    3.4033    2.6500    0.0000 C   0  0  0  0  0  0  0  0  0  0  0  0
  1  2  2  0
  1  6  1  0
  2  3  1  0
  3  4  2  0
  4  5  1  0
  5  6  2  0
  1  7  1  0
  2  8  1  0
  3 17  1  0
 17  9  1  0
  5 10  1  0
  6 11  1  0
 11 12  2  0
 12 21  1  0
 21 13  2  0
 13 14  1  0
 14 15  2  0
 15 23  1  0
 23 16  2  0
 16 19  1  0
 19 18  2  0
 19 20  1  0
 21 22  1  0
 23 24  1  0
M  END
>  <ALOGPS_LOGP>  (36) 
5.2

>  <ALOGPS_LOGS>  (36) 
-5.83

>  <ALOGPS_SOLUBILITY>  (36) 
4.78e-04 g/l

>  <DATABASE_NAME>  (36) 
drugbank

>  <DRUGBANK_ID>  (36) 
DB00459

>  <DRUG_GROUPS>  (36) 
approved

>  <EXACT_MASS>  (36) 
326.188194698

>  <FORMULA>  (36) 
C21H26O3

>  <GENERIC_NAME>  (36) 
Acitretin

>  <ID>  (36) 


>  <INCHI_IDENTIFIER>  (36) 
InChI=1S/C21H26O3/c1-14(8-7-9-15(2)12-21(22)23)10-11-19-16(3)13-20(24-6)18(5)17(19)4/h7-13H,1-6H3,(H,22,23)/b9-7+,11-10+,14-8+,15-12+

>  <INCHI_KEY>  (36) 
IHUNBGSDBOWDMA-AQFIFDHZSA-N

>  <INTERNATIONAL_BRANDS>  (36) 
Neotigason

>  <JCHEM_ACCEPTOR_COUNT>  (36) 
3

>  <JCHEM_ATOM_COUNT>  (36) 
nan

>  <JCHEM_AVERAGE_POLARIZABILITY>  (36) 
38.543934520218215

>  <JCHEM_BIOAVAILABILITY>  (36) 
1

>  <JCHEM_DONOR_COUNT>  (36) 
1

>  <JCHEM_FORMAL_CHARGE>  (36) 
0

>  <JCHEM_GHOSE_FILTER>  (36) 
1

>  <JCHEM_IUPAC>  (36) 
(2E,4E,6E,8E)-9-(4-methoxy-2,3,6-trimethylphenyl)-3,7-dimethylnona-2,4,6,8-tetraenoic acid

>  <JCHEM_LOGP>  (36) 
5.5870487256666665

>  <JCHEM_MDDR_LIKE_RULE>  (36) 
0

>  <JCHEM_NUMBER_OF_RINGS>  (36) 
1

>  <JCHEM_PHYSIOLOGICAL_CHARGE>  (36) 
-1

>  <JCHEM_PKA>  (36) 
nan

>  <JCHEM_PKA_STRONGEST_ACIDIC>  (36) 
5.011075936120913

>  <JCHEM_PKA_STRONGEST_BASIC>  (36) 
-4.820120196843592

>  <JCHEM_POLAR_SURFACE_AREA>  (36) 
46.53

>  <JCHEM_REFRACTIVITY>  (36) 
104.16649999999998

>  <JCHEM_ROTATABLE_BOND_COUNT>  (36) 
6

>  <JCHEM_RULE_OF_FIVE>  (36) 
0

>  <JCHEM_TRADITIONAL_IUPAC>  (36) 
acitretin

>  <JCHEM_VEBER_RULE>  (36) 
0

>  <MOLECULAR_WEIGHT>  (36) 
326.4293

>  <PRODUCTS>  (36) 
Acitretin; Mint-acitretin; Soriatane; Taro-acitretin

>  <SALTS>  (36) 
nan

>  <SECONDARY_ACCESSION_NUMBERS>  (36) 
APRD00778

>  <SMILES>  (36) 
COC1=C(C)C(C)=C(\C=C\C(\C)=C\C=C\C(\C)=C\C(O)=O)C(C)=C1

>  <SYNONYMS>  (36) 
(all-E)-9-(4-Methoxy-2,3,6-trimethylphenyl)-3,7-dimethyl-2,4,6,8-nonatetraenoic acid; Acitretin; Acitretina; Acitretine; Acitretinum; all-trans-3,7-Dimethyl-9-(4-methoxy-2,3,6-trimethylphenyl)-2,4,6,8-nonatetraenoic acid; Etretin

>  <ECFP_FP>  (36) 
<rdkit.DataStructs.cDataStructs.ExplicitBitVect object at 0xa265efbc0>

>  <pki_G>  (36) 
6.102177

>  <pki_D>  (36) 
5.579491

>  <pki_B>  (36) 
5.467063

>  <pki_A>  (36) 
5.324741

>  <SelB>  (36) 
0.635114

>  <SelA>  (36) 
0.777436

>  <SelD>  (36) 
0.522686

>  <AvgABSel>  (36) 
0.706275

>  <MACCS_FP>  (36) 
[0. 0. 0. 0. 0. 0. 0. 0. 0. 0. 0. 0. 0. 0. 0. 0. 0. 0. 0. 0. 0. 0. 0. 0.
 0. 0. 0. 0. 0. 0. 0. 0. 0. 0. 0. 0. 0. 0. 0. 0. 0. 0. 0. 0. 0. 0. 0. 0.
 0. 0. 1. 0. 0. 0. 0. 0. 0. 0. 0. 0. 0. 0. 0. 0. 0. 0. 0. 0. 0. 0. 0. 0.
 0. 0. 0. 0. 1. 0. 0. 0. 0. 0. 0. 0. 0. 0. 0. 0. 0. 0. 0. 0. 0. 1. 0. 0.
 0. 0. 0. 1. 0. 0. 0. 0. 0. 0. 0. 0. 0. 0. 0. 0. 0. 1. 0. 0. 0. 0. 0. 0.
 0. 0. 0. 1. 0. 0. 1. 1. 0. 0. 0. 0. 0. 0. 0. 0. 0. 0. 0. 1. 0. 1. 0. 1.
 1. 0. 1. 0. 0. 1. 1. 0. 1. 0. 1. 0. 0. 1. 0. 1. 1. 0. 1. 1. 1. 1. 0.]

>  <MACCS_pki_G>  (36) 
5.695313

>  <MACCS_pki_D>  (36) 
5.9563

>  <MACCS_pki_B>  (36) 
5.713753

>  <MACCS_pki_A>  (36) 
5.731207

>  <MACCS_SelB>  (36) 
-0.01844

>  <MACCS_SelA>  (36) 
-0.035894

>  <MACCS_SelD>  (36) 
-0.260987

>  <MACCSAvgABSel>  (36) 
-0.027167

>  <Pharm2D_FP>  (36) 
[0. 0. 0. ... 0. 0. 0.]

>  <Pharm2D_pki_G>  (36) 
5.825474

>  <Pharm2D_pki_D>  (36) 
5.579377

>  <Pharm2D_pki_B>  (36) 
5.338176

>  <Pharm2D_pki_A>  (36) 
4.925071

>  <Pharm2D_SelB>  (36) 
0.487298

>  <Pharm2D_SelA>  (36) 
0.900402

>  <Pharm2D_SelD>  (36) 
0.246096

>  <Pharm2DAvgABSel>  (36) 
0.69385

>  <QED>  (36) 
0.579454

$$$$
DB11392
     RDKit          2D

 17 17  0  0  0  0  0  0  0  0999 V2000
   -1.2375   -0.9355    0.0000 C   0  0  0  0  0  0  0  0  0  0  0  0
   -0.0000   -3.0789    0.0000 C   0  0  0  0  0  0  0  0  0  0  0  0
    1.4289   -0.0000    0.0000 C   0  0  0  0  0  0  0  0  0  0  0  0
    0.0000   -0.0000    0.0000 C   0  0  0  0  0  0  0  0  0  0  0  0
    1.4289    0.8250    0.0000 C   0  0  0  0  0  0  0  0  0  0  0  0
    0.0000    0.8250    0.0000 C   0  0  0  0  0  0  0  0  0  0  0  0
    0.7145   -0.4125    0.0000 C   0  0  0  0  0  0  0  0  0  0  0  0
    0.7145    1.2375    0.0000 C   0  0  0  0  0  0  0  0  0  0  0  0
    0.7145    2.8875    0.0000 N   0  0  0  0  0  0  0  0  0  0  0  0
    1.5395    2.0625    0.0000 O   0  0  0  0  0  0  0  0  0  0  0  0
   -0.1105    2.0625    0.0000 O   0  0  0  0  0  0  0  0  0  0  0  0
   -0.4125   -0.9355    0.0000 O   0  0  0  0  0  0  0  0  0  0  0  0
    0.4125   -2.3645    0.0000 O   0  0  0  0  0  0  0  0  0  0  0  0
    0.7145   -1.2375    0.0000 O   0  0  0  0  0  0  0  0  0  0  0  0
   -0.0000   -1.6500    0.0000 P   0  0  0  0  0  0  0  0  0  0  0  0
   -0.7145   -2.0625    0.0000 S   0  0  0  0  0  0  0  0  0  0  0  0
    0.7145    2.0625    0.0000 S   0  0  0  0  0  0  0  0  0  0  0  0
  5  3  2  0
  6  4  1  0
  7  3  1  0
  7  4  2  0
  8  5  1  0
  8  6  2  0
 12  1  1  0
 13  2  1  0
 14  7  1  0
 15 12  1  0
 15 13  1  0
 15 14  1  0
 16 15  2  0
 17  8  1  0
 17  9  1  0
 17 10  2  0
 17 11  2  0
M  END
>  <ALOGPS_LOGP>  (37) 
1.92

>  <ALOGPS_LOGS>  (37) 
-2.78

>  <ALOGPS_SOLUBILITY>  (37) 
4.88e-01 g/l

>  <DATABASE_NAME>  (37) 
drugbank

>  <DRUGBANK_ID>  (37) 
DB11392

>  <DRUG_GROUPS>  (37) 
vet_approved

>  <EXACT_MASS>  (37) 
296.989451836

>  <FORMULA>  (37) 
C8H12NO5PS2

>  <GENERIC_NAME>  (37) 
Cythioate

>  <ID>  (37) 


>  <INCHI_IDENTIFIER>  (37) 
InChI=1S/C8H12NO5PS2/c1-12-15(16,13-2)14-7-3-5-8(6-4-7)17(9,10)11/h3-6H,1-2H3,(H2,9,10,11)

>  <INCHI_KEY>  (37) 
BSBSDQUZDZXGFN-UHFFFAOYSA-N

>  <INTERNATIONAL_BRANDS>  (37) 
Proban

>  <JCHEM_ACCEPTOR_COUNT>  (37) 
2

>  <JCHEM_ATOM_COUNT>  (37) 
29

>  <JCHEM_AVERAGE_POLARIZABILITY>  (37) 
26.088867116728984

>  <JCHEM_BIOAVAILABILITY>  (37) 
1

>  <JCHEM_DONOR_COUNT>  (37) 
1

>  <JCHEM_FORMAL_CHARGE>  (37) 
0

>  <JCHEM_GHOSE_FILTER>  (37) 
1

>  <JCHEM_IUPAC>  (37) 
O,O-dimethyl O-4-sulfamoylphenyl phosphorothioate

>  <JCHEM_LOGP>  (37) 
1.2676371480000004

>  <JCHEM_MDDR_LIKE_RULE>  (37) 
0

>  <JCHEM_NUMBER_OF_RINGS>  (37) 
1

>  <JCHEM_PHYSIOLOGICAL_CHARGE>  (37) 
0

>  <JCHEM_PKA>  (37) 
nan

>  <JCHEM_PKA_STRONGEST_ACIDIC>  (37) 
10.27380911039557

>  <JCHEM_PKA_STRONGEST_BASIC>  (37) 
nan

>  <JCHEM_POLAR_SURFACE_AREA>  (37) 
87.85000000000001

>  <JCHEM_REFRACTIVITY>  (37) 
68.02520000000001

>  <JCHEM_ROTATABLE_BOND_COUNT>  (37) 
5

>  <JCHEM_RULE_OF_FIVE>  (37) 
1

>  <JCHEM_TRADITIONAL_IUPAC>  (37) 
proban

>  <JCHEM_VEBER_RULE>  (37) 
0

>  <MOLECULAR_WEIGHT>  (37) 
297.28

>  <PRODUCTS>  (37) 
nan

>  <SALTS>  (37) 
nan

>  <SECONDARY_ACCESSION_NUMBERS>  (37) 
nan

>  <SMILES>  (37) 
COP(=S)(OC)OC1=CC=C(C=C1)S(N)(=O)=O

>  <SYNONYMS>  (37) 
nan

>  <ECFP_FP>  (37) 
<rdkit.DataStructs.cDataStructs.ExplicitBitVect object at 0xa26bbb710>

>  <pki_G>  (37) 
6.081958

>  <pki_D>  (37) 
5.545789

>  <pki_B>  (37) 
5.480005

>  <pki_A>  (37) 
4.924469

>  <SelB>  (37) 
0.601954

>  <SelA>  (37) 
1.157489

>  <SelD>  (37) 
0.53617

>  <AvgABSel>  (37) 
0.879721

>  <MACCS_FP>  (37) 
[0. 0. 0. 0. 0. 0. 0. 0. 0. 0. 0. 0. 0. 0. 0. 0. 0. 0. 0. 0. 0. 0. 0. 0.
 0. 0. 0. 0. 0. 1. 0. 0. 1. 1. 0. 0. 0. 0. 0. 0. 0. 0. 0. 0. 0. 0. 0. 0.
 1. 0. 0. 1. 0. 0. 0. 1. 0. 0. 1. 1. 1. 1. 0. 0. 1. 0. 0. 1. 0. 1. 0. 0.
 0. 1. 0. 0. 0. 0. 0. 0. 0. 1. 0. 0. 1. 0. 0. 0. 1. 0. 0. 0. 0. 1. 1. 0.
 0. 0. 0. 0. 0. 0. 1. 0. 0. 0. 1. 0. 0. 0. 0. 0. 1. 1. 0. 0. 0. 1. 0. 0.
 0. 0. 0. 0. 1. 0. 1. 1. 0. 0. 1. 0. 0. 0. 0. 0. 1. 0. 0. 0. 1. 0. 0. 1.
 0. 0. 1. 0. 1. 1. 0. 1. 1. 0. 0. 0. 1. 1. 0. 1. 1. 1. 1. 1. 1. 1. 0.]

>  <MACCS_pki_G>  (37) 
5.927254

>  <MACCS_pki_D>  (37) 
6.521398

>  <MACCS_pki_B>  (37) 
5.528851

>  <MACCS_pki_A>  (37) 
5.332457

>  <MACCS_SelB>  (37) 
0.398403

>  <MACCS_SelA>  (37) 
0.594796

>  <MACCS_SelD>  (37) 
-0.594144

>  <MACCSAvgABSel>  (37) 
0.4966

>  <Pharm2D_FP>  (37) 
[0. 0. 0. ... 0. 0. 0.]

>  <Pharm2D_pki_G>  (37) 
5.825474

>  <Pharm2D_pki_D>  (37) 
5.420034

>  <Pharm2D_pki_B>  (37) 
5.318871

>  <Pharm2D_pki_A>  (37) 
4.763429

>  <Pharm2D_SelB>  (37) 
0.506603

>  <Pharm2D_SelA>  (37) 
1.062045

>  <Pharm2D_SelD>  (37) 
0.405439

>  <Pharm2DAvgABSel>  (37) 
0.784324

>  <QED>  (37) 
0.822417

$$$$
DB13993
     RDKit          2D

 29 33  0  0  0  0  0  0  0  0999 V2000
    3.2578   -1.0172    0.0000 C   0  0  0  0  0  0  0  0  0  0  0  0
    1.9140   -2.1080    0.0000 C   0  0  0  0  0  0  0  0  0  0  0  0
   -2.7891    2.3215    0.0000 C   0  0  0  0  0  0  0  0  0  0  0  0
    1.7005   -1.3111    0.0000 C   0  0  0  0  0  0  0  0  0  0  0  0
    1.1171   -2.3215    0.0000 C   0  0  0  0  0  0  0  0  0  0  0  0
   -3.3412    1.7085    0.0000 C   0  0  0  0  0  0  0  0  0  0  0  0
   -1.9822    2.1500    0.0000 C   0  0  0  0  0  0  0  0  0  0  0  0
   -0.5252   -1.5247    0.0000 C   0  0  0  0  0  0  0  0  0  0  0  0
    1.6181   -0.2872    0.0000 C   0  0  0  0  0  0  0  0  0  0  0  0
    3.2258    1.1173    0.0000 C   0  0  0  0  0  0  0  0  0  0  0  0
    0.9036   -1.5247    0.0000 C   0  0  0  0  0  0  0  0  0  0  0  0
    0.1891   -1.1122    0.0000 C   0  0  0  0  0  0  0  0  0  0  0  0
   -3.0862    0.9238    0.0000 C   0  0  0  0  0  0  0  0  0  0  0  0
   -1.7272    1.3654    0.0000 C   0  0  0  0  0  0  0  0  0  0  0  0
   -1.2397   -1.1122    0.0000 C   0  0  0  0  0  0  0  0  0  0  0  0
    2.3326    0.1252    0.0000 C   0  0  0  0  0  0  0  0  0  0  0  0
   -2.2793    0.7523    0.0000 C   0  0  0  0  0  0  0  0  0  0  0  0
   -2.0243   -0.0322    0.0000 C   0  0  0  0  0  0  0  0  0  0  0  0
    0.1891   -0.2872    0.0000 C   0  0  0  0  0  0  0  0  0  0  0  0
   -3.6383    0.3107    0.0000 F   0  0  0  0  0  0  0  0  0  0  0  0
   -0.9203    1.1939    0.0000 F   0  0  0  0  0  0  0  0  0  0  0  0
    2.4188    0.9457    0.0000 N   0  0  0  0  0  0  0  0  0  0  0  0
    3.6383    0.4028    0.0000 N   0  0  0  0  0  0  0  0  0  0  0  0
   -2.0243   -1.3671    0.0000 N   0  0  0  0  0  0  0  0  0  0  0  0
   -2.5092   -0.6997    0.0000 N   0  0  0  0  0  0  0  0  0  0  0  0
   -0.5252    0.1252    0.0000 N   0  0  0  0  0  0  0  0  0  0  0  0
    3.0862   -0.2102    0.0000 N   0  0  0  0  0  0  0  0  0  0  0  0
   -1.2397   -0.2872    0.0000 N   0  0  0  0  0  0  0  0  0  0  0  0
    0.9036    0.1252    0.0000 O   0  0  0  0  0  0  0  0  0  0  0  0
  4  2  1  0
  5  2  1  0
  6  3  2  0
  7  3  1  0
 11  4  1  0
 11  5  1  0
 12  8  2  0
 12 11  1  0
 13  6  1  0
 14  7  2  0
 15  8  1  0
 16  9  1  0
 17 13  2  0
 17 14  1  0
 18 17  1  0
 19 12  1  0
 20 13  1  0
 21 14  1  0
 22 10  1  0
 22 16  2  0
 23 10  2  0
 24 15  2  0
 25 18  2  0
 25 24  1  0
 26 19  2  0
 27  1  1  0
 27 16  1  0
 27 23  1  0
 28 15  1  0
 28 18  1  0
 28 26  1  0
 29  9  1  0
 29 19  1  0
M  END
>  <ALOGPS_LOGP>  (38) 
2.68

>  <ALOGPS_LOGS>  (38) 
-4.20

>  <ALOGPS_SOLUBILITY>  (38) 
2.49e-02 g/l

>  <DATABASE_NAME>  (38) 
drugbank

>  <DRUGBANK_ID>  (38) 
DB13993

>  <DRUG_GROUPS>  (38) 
experimental

>  <EXACT_MASS>  (38) 
397.146264521

>  <FORMULA>  (38) 
C19H17F2N7O

>  <GENERIC_NAME>  (38) 
MRK-409

>  <ID>  (38) 


>  <INCHI_IDENTIFIER>  (38) 
InChI=1S/C19H17F2N7O/c1-27-16(22-10-23-27)9-29-19-12(11-4-2-5-11)8-15-24-25-18(28(15)26-19)17-13(20)6-3-7-14(17)21/h3,6-8,10-11H,2,4-5,9H2,1H3

>  <INCHI_KEY>  (38) 
GOIFCXRIFSYPFG-UHFFFAOYSA-N

>  <INTERNATIONAL_BRANDS>  (38) 
nan

>  <JCHEM_ACCEPTOR_COUNT>  (38) 
6

>  <JCHEM_ATOM_COUNT>  (38) 
46

>  <JCHEM_AVERAGE_POLARIZABILITY>  (38) 
38.75722705239335

>  <JCHEM_BIOAVAILABILITY>  (38) 
1

>  <JCHEM_DONOR_COUNT>  (38) 
0

>  <JCHEM_FORMAL_CHARGE>  (38) 
0

>  <JCHEM_GHOSE_FILTER>  (38) 
0

>  <JCHEM_IUPAC>  (38) 
5-({[7-cyclobutyl-3-(2,6-difluorophenyl)-[1,2,4]triazolo[4,3-b]pyridazin-6-yl]oxy}methyl)-1-methyl-1H-1,2,4-triazole

>  <JCHEM_LOGP>  (38) 
3.204313245333333

>  <JCHEM_MDDR_LIKE_RULE>  (38) 
0

>  <JCHEM_NUMBER_OF_RINGS>  (38) 
5

>  <JCHEM_PHYSIOLOGICAL_CHARGE>  (38) 
0

>  <JCHEM_PKA>  (38) 
nan

>  <JCHEM_PKA_STRONGEST_ACIDIC>  (38) 
nan

>  <JCHEM_PKA_STRONGEST_BASIC>  (38) 
1.2014510834167322

>  <JCHEM_POLAR_SURFACE_AREA>  (38) 
83.02

>  <JCHEM_REFRACTIVITY>  (38) 
135.3076

>  <JCHEM_ROTATABLE_BOND_COUNT>  (38) 
4

>  <JCHEM_RULE_OF_FIVE>  (38) 
1

>  <JCHEM_TRADITIONAL_IUPAC>  (38) 
5-({[7-cyclobutyl-3-(2,6-difluorophenyl)-[1,2,4]triazolo[4,3-b]pyridazin-6-yl]oxy}methyl)-1-methyl-1,2,4-triazole

>  <JCHEM_VEBER_RULE>  (38) 
0

>  <MOLECULAR_WEIGHT>  (38) 
397.39

>  <PRODUCTS>  (38) 
nan

>  <SALTS>  (38) 
nan

>  <SECONDARY_ACCESSION_NUMBERS>  (38) 
nan

>  <SMILES>  (38) 
CN1N=CN=C1COC1=NN2C(C=C1C1CCC1)=NN=C2C1=C(F)C=CC=C1F

>  <SYNONYMS>  (38) 
nan

>  <ECFP_FP>  (38) 
<rdkit.DataStructs.cDataStructs.ExplicitBitVect object at 0xa26cfa7b0>

>  <pki_G>  (38) 
6.079377

>  <pki_D>  (38) 
5.495149

>  <pki_B>  (38) 
5.552736

>  <pki_A>  (38) 
5.186431

>  <SelB>  (38) 
0.526641

>  <SelA>  (38) 
0.892946

>  <SelD>  (38) 
0.584228

>  <AvgABSel>  (38) 
0.709794

>  <MACCS_FP>  (38) 
[0. 0. 0. 0. 0. 0. 0. 0. 0. 0. 0. 1. 0. 0. 0. 0. 0. 0. 0. 0. 0. 0. 0. 0.
 0. 0. 0. 0. 0. 0. 0. 0. 0. 0. 0. 0. 0. 0. 1. 0. 0. 0. 1. 0. 0. 0. 0. 0.
 0. 0. 0. 0. 1. 0. 0. 0. 0. 0. 0. 0. 0. 0. 1. 0. 0. 1. 0. 0. 0. 0. 0. 0.
 0. 0. 0. 1. 0. 1. 0. 1. 1. 0. 0. 1. 0. 0. 0. 1. 0. 0. 0. 0. 1. 1. 1. 1.
 1. 1. 1. 0. 0. 1. 0. 0. 0. 1. 0. 1. 0. 1. 1. 1. 0. 1. 0. 0. 1. 1. 1. 0.
 1. 1. 1. 0. 1. 1. 1. 1. 0. 0. 1. 0. 0. 0. 1. 0. 0. 1. 0. 0. 0. 0. 1. 1.
 1. 1. 0. 1. 1. 0. 1. 0. 0. 1. 0. 1. 1. 1. 1. 0. 1. 1. 1. 1. 1. 1. 0.]

>  <MACCS_pki_G>  (38) 
6.357225

>  <MACCS_pki_D>  (38) 
6.047226

>  <MACCS_pki_B>  (38) 
5.559287

>  <MACCS_pki_A>  (38) 
5.475746

>  <MACCS_SelB>  (38) 
0.797938

>  <MACCS_SelA>  (38) 
0.881479

>  <MACCS_SelD>  (38) 
0.309999

>  <MACCSAvgABSel>  (38) 
0.839709

>  <Pharm2D_FP>  (38) 
[0. 0. 0. ... 0. 0. 0.]

>  <Pharm2D_pki_G>  (38) 
6.088728

>  <Pharm2D_pki_D>  (38) 
5.953884

>  <Pharm2D_pki_B>  (38) 
5.551539

>  <Pharm2D_pki_A>  (38) 
6.000547

>  <Pharm2D_SelB>  (38) 
0.537189

>  <Pharm2D_SelA>  (38) 
0.088181

>  <Pharm2D_SelD>  (38) 
0.134844

>  <Pharm2DAvgABSel>  (38) 
0.312685

>  <QED>  (38) 
0.514795

$$$$
DB01980
     RDKit          2D

 14 14  0  0  0  0  0  0  0  0999 V2000
   -0.7000    0.1437    0.0000 C   0  0  0  0  0  0  0  0  0  0  0  0
   -0.7000   -0.6813    0.0000 C   0  0  0  0  0  0  0  0  0  0  0  0
   -1.4145   -1.0938    0.0000 C   0  0  0  0  0  0  0  0  0  0  0  0
   -2.1289   -0.6813    0.0000 C   0  0  0  0  0  0  0  0  0  0  0  0
   -2.8434   -1.0938    0.0000 I   0  0  0  0  0  0  0  0  0  0  0  0
   -2.1289    0.1437    0.0000 C   0  0  0  0  0  0  0  0  0  0  0  0
   -1.4145    0.5562    0.0000 C   0  0  0  0  0  0  0  0  0  0  0  0
    0.0145    0.5562    0.0000 C   0  0  0  0  0  0  0  0  0  0  0  0
    0.7289    0.1437    0.0000 C   0  0  0  0  0  0  0  0  0  0  0  0
    0.7289   -0.6813    0.0000 N   0  0  0  0  0  0  0  0  0  0  0  0
    1.4434    0.5562    0.0000 C   0  0  0  0  0  0  0  0  0  0  0  0
    1.4434    1.3812    0.0000 O   0  0  0  0  0  0  0  0  0  0  0  0
    2.1579    0.1437    0.0000 N   0  0  0  0  0  0  0  0  0  0  0  0
    2.8724    0.5562    0.0000 O   0  0  0  0  0  0  0  0  0  0  0  0
  1  2  2  0
  1  7  1  0
  1  8  1  0
  2  3  1  0
  3  4  2  0
  4  5  1  0
  4  6  1  0
  6  7  2  0
  8  9  1  0
  9 10  1  6
  9 11  1  0
 11 12  2  0
 11 13  1  0
 13 14  1  0
M  END
>  <ALOGPS_LOGP>  (39) 
1.17

>  <ALOGPS_LOGS>  (39) 
-3.08

>  <ALOGPS_SOLUBILITY>  (39) 
2.56e-01 g/l

>  <DATABASE_NAME>  (39) 
drugbank

>  <DRUGBANK_ID>  (39) 
DB01980

>  <DRUG_GROUPS>  (39) 
experimental

>  <EXACT_MASS>  (39) 
305.986521026

>  <FORMULA>  (39) 
C9H11IN2O2

>  <GENERIC_NAME>  (39) 
Para-Iodo-D-Phenylalanine Hydroxamic Acid

>  <ID>  (39) 
IPO

>  <INCHI_IDENTIFIER>  (39) 
InChI=1S/C9H11IN2O2/c10-7-3-1-6(2-4-7)5-8(11)9(13)12-14/h1-4,8,14H,5,11H2,(H,12,13)/t8-/m1/s1

>  <INCHI_KEY>  (39) 
AJEPKWPHKPETBM-MRVPVSSYSA-N

>  <INTERNATIONAL_BRANDS>  (39) 
nan

>  <JCHEM_ACCEPTOR_COUNT>  (39) 
3

>  <JCHEM_ATOM_COUNT>  (39) 
nan

>  <JCHEM_AVERAGE_POLARIZABILITY>  (39) 
24.221251031542597

>  <JCHEM_BIOAVAILABILITY>  (39) 
1

>  <JCHEM_DONOR_COUNT>  (39) 
3

>  <JCHEM_FORMAL_CHARGE>  (39) 
0

>  <JCHEM_GHOSE_FILTER>  (39) 
1

>  <JCHEM_IUPAC>  (39) 
(2R)-2-amino-N-hydroxy-3-(4-iodophenyl)propanamide

>  <JCHEM_LOGP>  (39) 
0.9473275744249511

>  <JCHEM_MDDR_LIKE_RULE>  (39) 
0

>  <JCHEM_NUMBER_OF_RINGS>  (39) 
1

>  <JCHEM_PHYSIOLOGICAL_CHARGE>  (39) 
1

>  <JCHEM_PKA>  (39) 
16.80079872445372

>  <JCHEM_PKA_STRONGEST_ACIDIC>  (39) 
8.799604389834094

>  <JCHEM_PKA_STRONGEST_BASIC>  (39) 
7.564541804643567

>  <JCHEM_POLAR_SURFACE_AREA>  (39) 
75.35000000000001

>  <JCHEM_REFRACTIVITY>  (39) 
62.06560000000001

>  <JCHEM_ROTATABLE_BOND_COUNT>  (39) 
3

>  <JCHEM_RULE_OF_FIVE>  (39) 
1

>  <JCHEM_TRADITIONAL_IUPAC>  (39) 
(2R)-2-amino-N-hydroxy-3-(4-iodophenyl)propanamide

>  <JCHEM_VEBER_RULE>  (39) 
0

>  <MOLECULAR_WEIGHT>  (39) 
306.1003

>  <PRODUCTS>  (39) 
nan

>  <SALTS>  (39) 
nan

>  <SECONDARY_ACCESSION_NUMBERS>  (39) 
EXPT01920

>  <SMILES>  (39) 
[H][C@@](N)(CC1=CC=C(I)C=C1)C(=O)NO

>  <SYNONYMS>  (39) 
nan

>  <ECFP_FP>  (39) 
<rdkit.DataStructs.cDataStructs.ExplicitBitVect object at 0xa266e6670>

>  <pki_G>  (39) 
6.071654

>  <pki_D>  (39) 
5.927305

>  <pki_B>  (39) 
5.471648

>  <pki_A>  (39) 
5.819617

>  <SelB>  (39) 
0.600006

>  <SelA>  (39) 
0.252037

>  <SelD>  (39) 
0.144349

>  <AvgABSel>  (39) 
0.426022

>  <MACCS_FP>  (39) 
[0. 0. 0. 0. 0. 0. 0. 0. 0. 0. 0. 0. 0. 0. 0. 0. 0. 0. 0. 0. 0. 0. 0. 0.
 1. 0. 0. 1. 0. 0. 0. 0. 0. 0. 0. 0. 0. 0. 0. 0. 0. 0. 0. 0. 0. 0. 0. 0.
 0. 0. 0. 0. 0. 1. 1. 0. 0. 0. 0. 0. 0. 0. 0. 0. 0. 0. 0. 0. 1. 1. 0. 1.
 1. 0. 0. 0. 0. 0. 0. 1. 0. 0. 0. 0. 1. 0. 0. 1. 0. 0. 1. 1. 1. 0. 1. 1.
 0. 1. 0. 0. 0. 0. 1. 0. 1. 0. 0. 1. 0. 0. 1. 1. 0. 0. 0. 0. 0. 1. 0. 0.
 0. 0. 0. 0. 1. 0. 0. 0. 0. 0. 0. 1. 0. 0. 1. 0. 0. 0. 0. 1. 0. 0. 1. 0.
 0. 0. 0. 0. 0. 0. 0. 1. 0. 0. 1. 1. 1. 0. 1. 1. 0. 1. 1. 1. 1. 1. 0.]

>  <MACCS_pki_G>  (39) 
6.161408

>  <MACCS_pki_D>  (39) 
5.653227

>  <MACCS_pki_B>  (39) 
5.529486

>  <MACCS_pki_A>  (39) 
5.243423

>  <MACCS_SelB>  (39) 
0.631922

>  <MACCS_SelA>  (39) 
0.917985

>  <MACCS_SelD>  (39) 
0.508181

>  <MACCSAvgABSel>  (39) 
0.774953

>  <Pharm2D_FP>  (39) 
[0. 0. 0. ... 0. 0. 0.]

>  <Pharm2D_pki_G>  (39) 
5.748555

>  <Pharm2D_pki_D>  (39) 
5.591718

>  <Pharm2D_pki_B>  (39) 
5.370686

>  <Pharm2D_pki_A>  (39) 
5.144097

>  <Pharm2D_SelB>  (39) 
0.377869

>  <Pharm2D_SelA>  (39) 
0.604458

>  <Pharm2D_SelD>  (39) 
0.156837

>  <Pharm2DAvgABSel>  (39) 
0.491164

>  <QED>  (39) 
0.43631

$$$$
DB04853
     RDKit          2D

 28 31  0  0  1  0  0  0  0  0999 V2000
    7.9191    0.7358    0.0000 O   0  0  0  0  0  0  0  0  0  0  0  0
    9.8546   -0.1650    0.0000 O   0  0  0  0  0  0  0  0  0  0  0  0
    9.8576    1.6299    0.0000 O   0  0  0  0  0  0  0  0  0  0  0  0
    8.7047    2.7996    0.0000 O   0  0  0  0  0  0  0  0  0  0  0  0
    8.1466   -0.7167    0.0000 N   0  0  0  0  0  0  0  0  0  0  0  0
    8.1466   -2.0446    0.0000 N   0  0  0  0  0  0  0  0  0  0  0  0
    6.6515   -0.5556    0.0000 N   0  0  0  0  0  0  0  0  0  0  0  0
    4.5080   -0.9681    0.0000 N   0  0  0  0  0  0  0  0  0  0  0  0
    5.2224   -0.5556    0.0000 N   0  0  0  0  0  0  0  0  0  0  0  0
    5.9370   -1.7931    0.0000 N   0  0  0  0  0  0  0  0  0  0  0  0
    6.6515   -3.0306    0.0000 N   0  0  0  0  0  0  0  0  0  0  0  0
    9.1880    0.3211    0.0000 C   0  0  0  0  0  0  0  0  0  0  0  0
    8.4029    0.0675    0.0000 C   0  0  0  0  0  0  0  0  0  0  0  0
    9.1894    1.1461    0.0000 C   0  0  0  0  0  0  0  0  0  0  0  0
    8.4052    1.4024    0.0000 C   0  0  0  0  0  0  0  0  0  0  0  0
    3.0791   -0.9681    0.0000 C   0  0  0  0  0  0  0  0  0  0  0  0
    2.3645   -0.5556    0.0000 C   0  0  0  0  0  0  0  0  0  0  0  0
    3.0791   -1.7931    0.0000 C   0  0  0  0  0  0  0  0  0  0  0  0
    1.6500   -0.9681    0.0000 C   0  0  0  0  0  0  0  0  0  0  0  0
    2.3645   -2.2056    0.0000 C   0  0  0  0  0  0  0  0  0  0  0  0
    1.6500   -1.7931    0.0000 C   0  0  0  0  0  0  0  0  0  0  0  0
    8.1516    2.1875    0.0000 C   0  0  0  0  0  0  0  0  0  0  0  0
    7.3659   -0.9681    0.0000 C   0  0  0  0  0  0  0  0  0  0  0  0
    8.6280   -1.3806    0.0000 C   0  0  0  0  0  0  0  0  0  0  0  0
    3.7935   -0.5556    0.0000 C   0  0  0  0  0  0  0  0  0  0  0  0
    7.3659   -1.7931    0.0000 C   0  0  0  0  0  0  0  0  0  0  0  0
    6.6515   -2.2056    0.0000 C   0  0  0  0  0  0  0  0  0  0  0  0
    5.9370   -0.9681    0.0000 C   0  0  0  0  0  0  0  0  0  0  0  0
  1 13  1  0
  1 15  1  0
 12  2  1  1
 14  3  1  1
  4 22  1  0
 13  5  1  6
  5 23  1  0
  5 24  1  0
  6 24  2  0
  6 26  1  0
  7 23  1  0
  7 28  2  0
  8  9  1  0
  8 25  2  0
  9 28  1  0
 10 27  2  0
 10 28  1  0
 11 27  1  0
 12 13  1  0
 12 14  1  0
 14 15  1  0
 15 22  1  6
 16 17  1  0
 16 18  1  0
 16 25  1  0
 17 19  1  0
 18 20  1  0
 19 21  1  0
 20 21  1  0
 23 26  2  0
 26 27  1  0
M  END
>  <ALOGPS_LOGP>  (40) 
1.41

>  <ALOGPS_LOGS>  (40) 
-2.54

>  <ALOGPS_SOLUBILITY>  (40) 
1.14e+00 g/l

>  <DATABASE_NAME>  (40) 
drugbank

>  <DRUGBANK_ID>  (40) 
DB04853

>  <DRUG_GROUPS>  (40) 
investigational

>  <EXACT_MASS>  (40) 
391.196802323

>  <FORMULA>  (40) 
C17H25N7O4

>  <GENERIC_NAME>  (40) 
Binodenoson

>  <ID>  (40) 


>  <INCHI_IDENTIFIER>  (40) 
InChI=1S/C17H25N7O4/c18-14-11-15(22-17(21-14)23-20-6-9-4-2-1-3-5-9)24(8-19-11)16-13(27)12(26)10(7-25)28-16/h6,8-10,12-13,16,25-27H,1-5,7H2,(H3,18,21,22,23)/b20-6+/t10-,12-,13-,16-/m1/s1

>  <INCHI_KEY>  (40) 
XJFMHMFFBSOEPR-DNZQAUTHSA-N

>  <INTERNATIONAL_BRANDS>  (40) 
nan

>  <JCHEM_ACCEPTOR_COUNT>  (40) 
10

>  <JCHEM_ATOM_COUNT>  (40) 
nan

>  <JCHEM_AVERAGE_POLARIZABILITY>  (40) 
40.9924824247975

>  <JCHEM_BIOAVAILABILITY>  (40) 
1

>  <JCHEM_DONOR_COUNT>  (40) 
5

>  <JCHEM_FORMAL_CHARGE>  (40) 
0

>  <JCHEM_GHOSE_FILTER>  (40) 
1

>  <JCHEM_IUPAC>  (40) 
(2R,3R,4S,5R)-2-{6-amino-2-[(E)-2-(cyclohexylmethylidene)hydrazin-1-yl]-9H-purin-9-yl}-5-(hydroxymethyl)oxolane-3,4-diol

>  <JCHEM_LOGP>  (40) 
0.4609811766666674

>  <JCHEM_MDDR_LIKE_RULE>  (40) 
0

>  <JCHEM_NUMBER_OF_RINGS>  (40) 
4

>  <JCHEM_PHYSIOLOGICAL_CHARGE>  (40) 
0

>  <JCHEM_PKA>  (40) 
12.468773492919677

>  <JCHEM_PKA_STRONGEST_ACIDIC>  (40) 
10.994209227406717

>  <JCHEM_PKA_STRONGEST_BASIC>  (40) 
4.336123749344417

>  <JCHEM_POLAR_SURFACE_AREA>  (40) 
163.93

>  <JCHEM_REFRACTIVITY>  (40) 
101.74180000000001

>  <JCHEM_ROTATABLE_BOND_COUNT>  (40) 
5

>  <JCHEM_RULE_OF_FIVE>  (40) 
1

>  <JCHEM_TRADITIONAL_IUPAC>  (40) 
binodenoson

>  <JCHEM_VEBER_RULE>  (40) 
0

>  <MOLECULAR_WEIGHT>  (40) 
391.4249

>  <PRODUCTS>  (40) 
nan

>  <SALTS>  (40) 
nan

>  <SECONDARY_ACCESSION_NUMBERS>  (40) 
nan

>  <SMILES>  (40) 
OC[C@H]1O[C@H]([C@H](O)[C@@H]1O)N1C=NC2=C(N)N=C(N\N=C\C3CCCCC3)N=C12

>  <SYNONYMS>  (40) 
2-((Cyclohexylmethylene)hydrazino)adenosine; Binodenoson

>  <ECFP_FP>  (40) 
<rdkit.DataStructs.cDataStructs.ExplicitBitVect object at 0xa269b9800>

>  <pki_G>  (40) 
6.057062

>  <pki_D>  (40) 
6.698966

>  <pki_B>  (40) 
5.465837

>  <pki_A>  (40) 
5.577478

>  <SelB>  (40) 
0.591226

>  <SelA>  (40) 
0.479584

>  <SelD>  (40) 
-0.641904

>  <AvgABSel>  (40) 
0.535405

>  <MACCS_FP>  (40) 
[0. 0. 0. 0. 0. 0. 0. 0. 0. 0. 0. 0. 0. 0. 0. 0. 0. 0. 0. 0. 0. 0. 0. 0.
 0. 1. 0. 0. 0. 0. 0. 0. 0. 0. 0. 0. 0. 0. 1. 0. 0. 0. 0. 0. 0. 0. 0. 0.
 0. 0. 0. 0. 1. 1. 1. 0. 0. 1. 0. 0. 0. 0. 1. 0. 0. 1. 0. 0. 0. 1. 0. 0.
 1. 0. 0. 1. 0. 1. 1. 1. 1. 0. 1. 1. 1. 1. 0. 0. 0. 1. 1. 1. 1. 0. 1. 1.
 1. 1. 1. 0. 0. 1. 0. 0. 0. 1. 1. 0. 0. 1. 1. 0. 0. 0. 0. 0. 0. 1. 1. 1.
 1. 1. 1. 0. 1. 1. 0. 1. 1. 1. 0. 1. 1. 1. 0. 1. 0. 1. 0. 1. 1. 0. 1. 1.
 0. 1. 1. 1. 1. 0. 1. 1. 1. 1. 0. 1. 1. 1. 1. 1. 0. 1. 1. 1. 1. 1. 0.]

>  <MACCS_pki_G>  (40) 
6.602273

>  <MACCS_pki_D>  (40) 
5.914744

>  <MACCS_pki_B>  (40) 
5.76428

>  <MACCS_pki_A>  (40) 
5.774714

>  <MACCS_SelB>  (40) 
0.837993

>  <MACCS_SelA>  (40) 
0.827559

>  <MACCS_SelD>  (40) 
0.687529

>  <MACCSAvgABSel>  (40) 
0.832776

>  <Pharm2D_FP>  (40) 
[0. 0. 0. ... 0. 0. 0.]

>  <Pharm2D_pki_G>  (40) 
6.264564

>  <Pharm2D_pki_D>  (40) 
6.356747

>  <Pharm2D_pki_B>  (40) 
5.876719

>  <Pharm2D_pki_A>  (40) 
5.793123

>  <Pharm2D_SelB>  (40) 
0.387845

>  <Pharm2D_SelA>  (40) 
0.471441

>  <Pharm2D_SelD>  (40) 
-0.092183

>  <Pharm2DAvgABSel>  (40) 
0.429643

>  <QED>  (40) 
0.348323

$$$$
DB13113
     RDKit          2D

 28 32  0  0  0  0  0  0  0  0999 V2000
   -5.6660   -3.2287    0.0000 C   0  0  0  0  0  0  0  0  0  0  0  0
   -4.9986   -2.7438    0.0000 N   0  0  0  0  0  0  0  0  0  0  0  0
   -4.9986   -1.9188    0.0000 C   0  0  0  0  0  0  0  0  0  0  0  0
   -4.2139   -1.6638    0.0000 C   0  0  0  0  0  0  0  0  0  0  0  0
   -3.7290   -2.3313    0.0000 C   0  0  0  0  0  0  0  0  0  0  0  0
   -4.2139   -2.9987    0.0000 N   0  0  0  0  0  0  0  0  0  0  0  0
   -3.9590   -0.8792    0.0000 C   0  0  0  0  0  0  0  0  0  0  0  0
   -4.5110   -0.2661    0.0000 C   0  0  0  0  0  0  0  0  0  0  0  0
   -4.2561    0.5185    0.0000 C   0  0  0  0  0  0  0  0  0  0  0  0
   -3.4491    0.6900    0.0000 C   0  0  0  0  0  0  0  0  0  0  0  0
   -3.0366    1.4045    0.0000 N   0  0  0  0  0  0  0  0  0  0  0  0
   -2.2296    1.2330    0.0000 N   0  0  0  0  0  0  0  0  0  0  0  0
   -2.1434    0.4125    0.0000 C   0  0  0  0  0  0  0  0  0  0  0  0
   -2.8971    0.0769    0.0000 N   0  0  0  0  0  0  0  0  0  0  0  0
   -3.1520   -0.7077    0.0000 N   0  0  0  0  0  0  0  0  0  0  0  0
   -1.4289    0.0000    0.0000 C   0  0  0  0  0  0  0  0  0  0  0  0
   -0.7145   -0.4125    0.0000 C   0  0  0  0  0  0  0  0  0  0  0  0
   -0.7145   -1.2375    0.0000 C   0  0  0  0  0  0  0  0  0  0  0  0
    0.0000   -1.6500    0.0000 C   0  0  0  0  0  0  0  0  0  0  0  0
    0.7145   -1.2375    0.0000 C   0  0  0  0  0  0  0  0  0  0  0  0
    0.7145   -0.4125    0.0000 C   0  0  0  0  0  0  0  0  0  0  0  0
    0.0000   -0.0000    0.0000 C   0  0  0  0  0  0  0  0  0  0  0  0
    1.4289   -0.0000    0.0000 C   0  0  0  0  0  0  0  0  0  0  0  0
    2.1434   -0.4125    0.0000 C   0  0  0  0  0  0  0  0  0  0  0  0
    2.1434   -1.2375    0.0000 C   0  0  0  0  0  0  0  0  0  0  0  0
    1.4289   -1.6500    0.0000 N   0  0  0  0  0  0  0  0  0  0  0  0
   -1.8414   -0.7145    0.0000 F   0  0  0  0  0  0  0  0  0  0  0  0
   -1.0164    0.7145    0.0000 F   0  0  0  0  0  0  0  0  0  0  0  0
  1  2  1  0
  2  3  1  0
  3  4  2  0
  4  5  1  0
  5  6  2  0
  2  6  1  0
  4  7  1  0
  7  8  1  0
  8  9  2  0
  9 10  1  0
 10 11  2  0
 11 12  1  0
 12 13  2  0
 13 14  1  0
 10 14  1  0
 14 15  1  0
  7 15  2  0
 13 16  1  0
 16 17  1  0
 17 18  2  0
 18 19  1  0
 19 20  2  0
 20 21  1  0
 21 22  2  0
 17 22  1  0
 21 23  1  0
 23 24  2  0
 24 25  1  0
 25 26  2  0
 20 26  1  0
 16 27  1  0
 16 28  1  0
M  END
>  <ALOGPS_LOGP>  (41) 
3.04

>  <ALOGPS_LOGS>  (41) 
-4.52

>  <ALOGPS_SOLUBILITY>  (41) 
1.15e-02 g/l

>  <DATABASE_NAME>  (41) 
drugbank

>  <DRUGBANK_ID>  (41) 
DB13113

>  <DRUG_GROUPS>  (41) 
investigational

>  <EXACT_MASS>  (41) 
377.120049773

>  <FORMULA>  (41) 
C19H13F2N7

>  <GENERIC_NAME>  (41) 
JNJ-38877605

>  <ID>  (41) 


>  <INCHI_IDENTIFIER>  (41) 
InChI=1S/C19H13F2N7/c1-27-11-13(10-23-27)16-6-7-17-24-25-18(28(17)26-16)19(20,21)14-4-5-15-12(9-14)3-2-8-22-15/h2-11H,1H3

>  <INCHI_KEY>  (41) 
JRWCBEOAFGHNNU-UHFFFAOYSA-N

>  <INTERNATIONAL_BRANDS>  (41) 
nan

>  <JCHEM_ACCEPTOR_COUNT>  (41) 
5

>  <JCHEM_ATOM_COUNT>  (41) 
41

>  <JCHEM_AVERAGE_POLARIZABILITY>  (41) 
35.85868329517646

>  <JCHEM_BIOAVAILABILITY>  (41) 
1

>  <JCHEM_DONOR_COUNT>  (41) 
0

>  <JCHEM_FORMAL_CHARGE>  (41) 
0

>  <JCHEM_GHOSE_FILTER>  (41) 
1

>  <JCHEM_IUPAC>  (41) 
6-{difluoro[6-(1-methyl-1H-pyrazol-4-yl)-[1,2,4]triazolo[4,3-b]pyridazin-3-yl]methyl}quinoline

>  <JCHEM_LOGP>  (41) 
3.0365243250000002

>  <JCHEM_MDDR_LIKE_RULE>  (41) 
0

>  <JCHEM_NUMBER_OF_RINGS>  (41) 
5

>  <JCHEM_PHYSIOLOGICAL_CHARGE>  (41) 
0

>  <JCHEM_PKA>  (41) 
nan

>  <JCHEM_PKA_STRONGEST_ACIDIC>  (41) 
nan

>  <JCHEM_PKA_STRONGEST_BASIC>  (41) 
4.406726912787821

>  <JCHEM_POLAR_SURFACE_AREA>  (41) 
73.79

>  <JCHEM_REFRACTIVITY>  (41) 
120.86010000000002

>  <JCHEM_ROTATABLE_BOND_COUNT>  (41) 
3

>  <JCHEM_RULE_OF_FIVE>  (41) 
1

>  <JCHEM_TRADITIONAL_IUPAC>  (41) 
6-{difluoro[6-(1-methylpyrazol-4-yl)-[1,2,4]triazolo[4,3-b]pyridazin-3-yl]methyl}quinoline

>  <JCHEM_VEBER_RULE>  (41) 
0

>  <MOLECULAR_WEIGHT>  (41) 
377.359

>  <PRODUCTS>  (41) 
nan

>  <SALTS>  (41) 
nan

>  <SECONDARY_ACCESSION_NUMBERS>  (41) 
nan

>  <SMILES>  (41) 
CN1C=C(C=N1)C1=NN2C(C=C1)=NN=C2C(F)(F)C1=CC=C2N=CC=CC2=C1

>  <SYNONYMS>  (41) 
nan

>  <ECFP_FP>  (41) 
<rdkit.DataStructs.cDataStructs.ExplicitBitVect object at 0xa26c85a80>

>  <pki_G>  (41) 
6.056108

>  <pki_D>  (41) 
5.526495

>  <pki_B>  (41) 
5.518987

>  <pki_A>  (41) 
5.21566

>  <SelB>  (41) 
0.537121

>  <SelA>  (41) 
0.840448

>  <SelD>  (41) 
0.529614

>  <AvgABSel>  (41) 
0.688784

>  <MACCS_FP>  (41) 
[0. 0. 0. 0. 0. 0. 0. 0. 0. 0. 0. 0. 0. 0. 0. 0. 0. 0. 0. 0. 0. 0. 0. 0.
 0. 0. 0. 0. 0. 0. 0. 0. 0. 0. 0. 0. 0. 0. 1. 0. 0. 0. 1. 0. 0. 0. 0. 0.
 0. 0. 0. 0. 1. 0. 0. 0. 0. 0. 0. 0. 0. 0. 1. 0. 0. 1. 0. 0. 0. 0. 0. 0.
 0. 0. 0. 1. 0. 1. 0. 1. 1. 0. 0. 1. 0. 0. 0. 0. 0. 0. 0. 0. 0. 1. 1. 0.
 1. 0. 1. 0. 0. 1. 0. 0. 0. 1. 0. 1. 0. 0. 0. 0. 1. 0. 0. 0. 0. 0. 0. 0.
 1. 1. 1. 0. 1. 1. 0. 0. 0. 0. 1. 0. 0. 0. 1. 0. 0. 1. 0. 0. 0. 0. 1. 0.
 0. 1. 0. 0. 1. 0. 0. 0. 0. 0. 0. 0. 1. 0. 1. 0. 1. 1. 1. 1. 0. 1. 0.]

>  <MACCS_pki_G>  (41) 
5.94189

>  <MACCS_pki_D>  (41) 
6.230482

>  <MACCS_pki_B>  (41) 
5.493454

>  <MACCS_pki_A>  (41) 
4.919706

>  <MACCS_SelB>  (41) 
0.448437

>  <MACCS_SelA>  (41) 
1.022185

>  <MACCS_SelD>  (41) 
-0.288592

>  <MACCSAvgABSel>  (41) 
0.735311

>  <Pharm2D_FP>  (41) 
[0. 0. 0. ... 0. 0. 0.]

>  <Pharm2D_pki_G>  (41) 
6.22299

>  <Pharm2D_pki_D>  (41) 
5.907233

>  <Pharm2D_pki_B>  (41) 
5.491421

>  <Pharm2D_pki_A>  (41) 
5.828845

>  <Pharm2D_SelB>  (41) 
0.731568

>  <Pharm2D_SelA>  (41) 
0.394145

>  <Pharm2D_SelD>  (41) 
0.315757

>  <Pharm2DAvgABSel>  (41) 
0.562856

>  <QED>  (41) 
0.482701

$$$$
DB02483
     RDKit          2D

 46 51  0  0  1  0  0  0  0  0999 V2000
    0.5349   -9.1157    0.0000 C   0  0  0  0  0  0  0  0  0  0  0  0
    1.1480   -9.6677    0.0000 C   0  0  0  0  0  0  0  0  0  0  0  0
   -0.5344    1.8738    0.0000 C   0  0  0  0  0  0  0  0  0  0  0  0
    0.7064   -8.3087    0.0000 C   0  0  0  0  0  0  0  0  0  0  0  0
   -0.4482    1.0534    0.0000 C   0  0  0  0  0  0  0  0  0  0  0  0
    2.1042   -8.6058    0.0000 C   0  0  0  0  0  0  0  0  0  0  0  0
    2.9431   -5.5387    0.0000 C   0  0  0  0  0  0  0  0  0  0  0  0
    4.2678   -1.4617    0.0000 C   0  0  0  0  0  0  0  0  0  0  0  0
    0.7713    0.1674    0.0000 C   0  0  0  0  0  0  0  0  0  0  0  0
    2.9020    1.8738    0.0000 C   0  0  0  0  0  0  0  0  0  0  0  0
    1.9326   -9.4127    0.0000 C   0  0  0  0  0  0  0  0  0  0  0  0
    2.3300   -6.0907    0.0000 C   0  0  0  0  0  0  0  0  0  0  0  0
    4.0963   -0.6547    0.0000 C   0  0  0  0  0  0  0  0  0  0  0  0
    1.5963    1.5963    0.0000 C   0  0  0  0  0  0  0  0  0  0  0  0
    1.5231   -5.9192    0.0000 C   0  0  0  0  0  0  0  0  0  0  0  0
    4.6483   -0.0416    0.0000 C   0  0  0  0  0  0  0  0  0  0  0  0
    1.1106   -6.6337    0.0000 C   0  0  0  0  0  0  0  0  0  0  0  0
    4.2358    0.6728    0.0000 C   0  0  0  0  0  0  0  0  0  0  0  0
    2.5457   -9.9648    0.0000 C   0  0  0  0  0  0  0  0  0  0  0  0
    0.7713    1.5963    0.0000 C   0  0  0  0  0  0  0  0  0  0  0  0
    2.0088    0.8818    0.0000 C   0  0  0  0  0  0  0  0  0  0  0  0
    1.6626   -7.2468    0.0000 C   0  0  0  0  0  0  0  0  0  0  0  0
    3.4289    0.5013    0.0000 C   0  0  0  0  0  0  0  0  0  0  0  0
    3.3304   -9.7098    0.0000 N   0  0  0  0  0  0  0  0  0  0  0  0
    0.2193    2.2094    0.0000 N   0  0  0  0  0  0  0  0  0  0  0  0
    2.1483    2.2094    0.0000 N   0  0  0  0  0  0  0  0  0  0  0  0
    1.5963    0.1674    0.0000 N   0  0  0  0  0  0  0  0  0  0  0  0
    1.4911   -8.0537    0.0000 N   0  0  0  0  0  0  0  0  0  0  0  0
    0.3588    0.8818    0.0000 N   0  0  0  0  0  0  0  0  0  0  0  0
    2.8158    1.0534    0.0000 N   0  0  0  0  0  0  0  0  0  0  0  0
    1.1875   -5.1655    0.0000 O   0  0  0  0  0  0  0  0  0  0  0  0
    5.4688   -0.1279    0.0000 O   0  0  0  0  0  0  0  0  0  0  0  0
    0.2901   -6.7199    0.0000 O   0  0  0  0  0  0  0  0  0  0  0  0
    4.5714    1.4265    0.0000 O   0  0  0  0  0  0  0  0  0  0  0  0
    2.3742  -10.7718    0.0000 O   0  0  0  0  0  0  0  0  0  0  0  0
    2.8327   -3.5666    0.0000 O   0  0  0  0  0  0  0  0  0  0  0  0
    3.9367   -4.7928    0.0000 O   0  0  0  0  0  0  0  0  0  0  0  0
    3.0193   -2.9922    0.0000 O   0  0  0  0  0  0  0  0  0  0  0  0
    4.6332   -2.6492    0.0000 O   0  0  0  0  0  0  0  0  0  0  0  0
    2.7716   -4.7317    0.0000 O   0  0  0  0  0  0  0  0  0  0  0  0
    3.6547   -2.0137    0.0000 O   0  0  0  0  0  0  0  0  0  0  0  0
    2.4163   -6.9112    0.0000 O   0  0  0  0  0  0  0  0  0  0  0  0
    3.3426   -0.3192    0.0000 O   0  0  0  0  0  0  0  0  0  0  0  0
    3.9978   -3.6277    0.0000 O   0  0  0  0  0  0  0  0  0  0  0  0
    3.3847   -4.1797    0.0000 P   0  0  0  0  0  0  0  0  0  0  0  0
    3.8263   -2.8207    0.0000 P   0  0  0  0  0  0  0  0  0  0  0  0
  2  1  2  0
  4  1  1  0
  5  3  2  0
 11  2  1  0
 11  6  2  0
 12  7  1  1
 13  8  1  1
 15 12  1  0
 16 13  1  0
 17 15  1  0
 18 16  1  0
 19 11  1  0
 20 14  1  0
 21 14  2  0
 22 17  1  0
 23 18  1  0
 24 19  2  0
 25  3  1  0
 25 20  2  0
 26 10  2  0
 26 14  1  0
 27  9  2  0
 27 21  1  0
 28  4  2  0
 28  6  1  0
 22 28  1  1
 29  5  1  0
 29  9  1  0
 29 20  1  0
 30 10  1  0
 30 21  1  0
 23 30  1  1
 15 31  1  6
 16 32  1  6
 17 33  1  6
 18 34  1  6
 35 19  1  0
 40  7  1  0
 41  8  1  0
 42 12  1  0
 42 22  1  0
 43 13  1  0
 43 23  1  0
 45 36  2  0
 45 37  1  0
 45 40  1  0
 45 44  1  0
 46 38  2  0
 46 39  1  0
 46 41  1  0
 46 44  1  0
M  CHG  2  28   1  39  -1
M  END
>  <ALOGPS_LOGP>  (42) 
-0.87

>  <ALOGPS_LOGS>  (42) 
-2.30

>  <ALOGPS_SOLUBILITY>  (42) 
3.69e+00 g/l

>  <DATABASE_NAME>  (42) 
drugbank

>  <DRUGBANK_ID>  (42) 
DB02483

>  <DRUG_GROUPS>  (42) 
experimental

>  <EXACT_MASS>  (42) 
687.109121631

>  <FORMULA>  (42) 
C23H27N7O14P2

>  <GENERIC_NAME>  (42) 
Etheno-Nad

>  <ID>  (42) 


>  <INCHI_IDENTIFIER>  (42) 
InChI=1S/C23H27N7O14P2/c24-19(35)11-2-1-4-28(6-11)22-17(33)15(31)12(42-22)7-40-45(36,37)44-46(38,39)41-8-13-16(32)18(34)23(43-13)30-10-26-14-20-25-3-5-29(20)9-27-21(14)30/h1-6,9-10,12-13,15-18,22-23,31-34H,7-8H2,(H3-,24,35,36,37,38,39)/t12-,13-,15-,16-,17-,18-,22-,23-/m1/s1

>  <INCHI_KEY>  (42) 
JCDBQDNBEQHDHK-BSLNIGMPSA-N

>  <INTERNATIONAL_BRANDS>  (42) 
nan

>  <JCHEM_ACCEPTOR_COUNT>  (42) 
15

>  <JCHEM_ATOM_COUNT>  (42) 
nan

>  <JCHEM_AVERAGE_POLARIZABILITY>  (42) 
61.52449638636239

>  <JCHEM_BIOAVAILABILITY>  (42) 
0

>  <JCHEM_DONOR_COUNT>  (42) 
7

>  <JCHEM_FORMAL_CHARGE>  (42) 
0

>  <JCHEM_GHOSE_FILTER>  (42) 
0

>  <JCHEM_IUPAC>  (42) 
1-[(2R,3R,4S,5R)-5-({[({[(2R,3S,4R,5R)-3,4-dihydroxy-5-{3H-imidazo[2,1-f]purin-3-yl}oxolan-2-yl]methyl phosphonato}oxy)(hydroxy)phosphoryl]oxy}methyl)-3,4-dihydroxyoxolan-2-yl]-3-(C-hydroxycarbonimidoyl)-1λ⁵-pyridin-1-ylium

>  <JCHEM_LOGP>  (42) 
-11.150079934108724

>  <JCHEM_MDDR_LIKE_RULE>  (42) 
1

>  <JCHEM_NUMBER_OF_RINGS>  (42) 
6

>  <JCHEM_PHYSIOLOGICAL_CHARGE>  (42) 
-1

>  <JCHEM_PKA>  (42) 
3.24953974217358

>  <JCHEM_PKA_STRONGEST_ACIDIC>  (42) 
1.8607501205875305

>  <JCHEM_PKA_STRONGEST_BASIC>  (42) 
6.397045083422793

>  <JCHEM_POLAR_SURFACE_AREA>  (42) 
300.47

>  <JCHEM_REFRACTIVITY>  (42) 
158.20800000000003

>  <JCHEM_ROTATABLE_BOND_COUNT>  (42) 
11

>  <JCHEM_RULE_OF_FIVE>  (42) 
0

>  <JCHEM_TRADITIONAL_IUPAC>  (42) 
1-[(2R,3R,4S,5R)-5-{[({[(2R,3S,4R,5R)-3,4-dihydroxy-5-{imidazo[2,1-f]purin-3-yl}oxolan-2-yl]methyl phosphonato}oxy(hydroxy)phosphoryl)oxy]methyl}-3,4-dihydroxyoxolan-2-yl]-3-(C-hydroxycarbonimidoyl)-1λ⁵-pyridin-1-ylium

>  <JCHEM_VEBER_RULE>  (42) 
0

>  <MOLECULAR_WEIGHT>  (42) 
687.4465

>  <PRODUCTS>  (42) 
nan

>  <SALTS>  (42) 
nan

>  <SECONDARY_ACCESSION_NUMBERS>  (42) 
EXPT01343

>  <SMILES>  (42) 
[H][C@]1(COP([O-])(=O)OP(O)(=O)OC[C@@]2([H])O[C@@]([H])([N+]3=CC=CC(=C3)C(O)=N)[C@]([H])(O)[C@]2([H])O)O[C@@]([H])(N2C=NC3=C2N=CN2C=CN=C32)[C@]([H])(O)[C@]1([H])O

>  <SYNONYMS>  (42) 
nan

>  <ECFP_FP>  (42) 
<rdkit.DataStructs.cDataStructs.ExplicitBitVect object at 0xa26730b70>

>  <pki_G>  (42) 
6.035117

>  <pki_D>  (42) 
5.883183

>  <pki_B>  (42) 
5.490607

>  <pki_A>  (42) 
5.349647

>  <SelB>  (42) 
0.54451

>  <SelA>  (42) 
0.68547

>  <SelD>  (42) 
0.151935

>  <AvgABSel>  (42) 
0.61499

>  <MACCS_FP>  (42) 
[0. 0. 0. 0. 0. 0. 0. 0. 0. 0. 0. 0. 0. 0. 0. 0. 0. 0. 0. 0. 0. 0. 0. 0.
 0. 0. 0. 0. 0. 1. 0. 0. 0. 0. 0. 0. 0. 0. 1. 0. 0. 0. 0. 1. 0. 0. 0. 0.
 1. 1. 0. 0. 0. 0. 1. 0. 0. 1. 0. 0. 0. 0. 1. 0. 0. 1. 0. 0. 0. 1. 0. 0.
 1. 0. 0. 1. 0. 1. 1. 1. 1. 0. 0. 1. 0. 1. 0. 0. 0. 1. 1. 1. 1. 0. 0. 1.
 1. 1. 1. 0. 0. 1. 1. 0. 0. 1. 1. 0. 0. 1. 1. 0. 1. 0. 0. 0. 0. 1. 0. 1.
 1. 1. 1. 0. 1. 1. 1. 1. 0. 0. 1. 1. 1. 1. 0. 0. 1. 1. 1. 1. 1. 0. 1. 1.
 0. 1. 1. 0. 1. 0. 1. 1. 1. 1. 0. 1. 1. 1. 1. 1. 0. 1. 1. 1. 1. 1. 0.]

>  <MACCS_pki_G>  (42) 
6.315432

>  <MACCS_pki_D>  (42) 
5.840321

>  <MACCS_pki_B>  (42) 
5.74978

>  <MACCS_pki_A>  (42) 
5.815159

>  <MACCS_SelB>  (42) 
0.565652

>  <MACCS_SelA>  (42) 
0.500274

>  <MACCS_SelD>  (42) 
0.475111

>  <MACCSAvgABSel>  (42) 
0.532963

>  <Pharm2D_FP>  (42) 
[0. 0. 0. ... 0. 0. 0.]

>  <Pharm2D_pki_G>  (42) 
6.48788

>  <Pharm2D_pki_D>  (42) 
5.875781

>  <Pharm2D_pki_B>  (42) 
5.618879

>  <Pharm2D_pki_A>  (42) 
5.657997

>  <Pharm2D_SelB>  (42) 
0.869001

>  <Pharm2D_SelA>  (42) 
0.829883

>  <Pharm2D_SelD>  (42) 
0.612099

>  <Pharm2DAvgABSel>  (42) 
0.849442

>  <QED>  (42) 
0.038099

$$$$
DB13675
     RDKit          2D

 21 22  0  0  0  0  0  0  0  0999 V2000
    3.5724   -2.0625    0.0000 C   0  0  0  0  0  0  0  0  0  0  0  0
    3.5724   -2.8875    0.0000 C   0  0  0  0  0  0  0  0  0  0  0  0
    4.2868   -3.3000    0.0000 C   0  0  0  0  0  0  0  0  0  0  0  0
    4.2868   -4.1250    0.0000 C   0  0  0  0  0  0  0  0  0  0  0  0
    3.5724   -4.5375    0.0000 C   0  0  0  0  0  0  0  0  0  0  0  0
    2.8579   -4.1250    0.0000 C   0  0  0  0  0  0  0  0  0  0  0  0
    2.8579   -3.3000    0.0000 C   0  0  0  0  0  0  0  0  0  0  0  0
    2.1434   -2.8875    0.0000 N   0  0  0  0  0  0  0  0  0  0  0  0
    3.5724   -5.3625    0.0000 S   0  0  0  0  0  0  0  0  0  0  0  0
    2.7474   -5.3625    0.0000 O   0  0  0  0  0  0  0  0  0  0  0  0
    4.3974   -5.3625    0.0000 O   0  0  0  0  0  0  0  0  0  0  0  0
    3.5724   -6.1875    0.0000 N   0  0  0  0  0  0  0  0  0  0  0  0
    2.8579   -6.6000    0.0000 C   0  0  0  0  0  0  0  0  0  0  0  0
    2.1434   -6.1875    0.0000 O   0  0  0  0  0  0  0  0  0  0  0  0
    2.8579   -7.4250    0.0000 N   0  0  0  0  0  0  0  0  0  0  0  0
    2.1434   -7.8375    0.0000 C   0  0  0  0  0  0  0  0  0  0  0  0
    2.1434   -8.6625    0.0000 C   0  0  0  0  0  0  0  0  0  0  0  0
    1.4289   -9.0750    0.0000 C   0  0  0  0  0  0  0  0  0  0  0  0
    0.7145   -8.6625    0.0000 C   0  0  0  0  0  0  0  0  0  0  0  0
    0.7145   -7.8375    0.0000 C   0  0  0  0  0  0  0  0  0  0  0  0
    1.4289   -7.4250    0.0000 C   0  0  0  0  0  0  0  0  0  0  0  0
  1  2  1  0
  2  3  2  0
  3  4  1  0
  4  5  2  0
  5  6  1  0
  6  7  2  0
  2  7  1  0
  7  8  1  0
  5  9  1  0
  9 10  2  0
  9 11  2  0
  9 12  1  0
 12 13  1  0
 13 14  2  0
 13 15  1  0
 15 16  1  0
 16 17  1  0
 17 18  1  0
 18 19  1  0
 19 20  1  0
 20 21  1  0
 16 21  1  0
M  END
>  <ALOGPS_LOGP>  (43) 
2.02

>  <ALOGPS_LOGS>  (43) 
-3.14

>  <ALOGPS_SOLUBILITY>  (43) 
2.28e-01 g/l

>  <DATABASE_NAME>  (43) 
drugbank

>  <DRUGBANK_ID>  (43) 
DB13675

>  <DRUG_GROUPS>  (43) 
experimental

>  <EXACT_MASS>  (43) 
311.130362722

>  <FORMULA>  (43) 
C14H21N3O3S

>  <GENERIC_NAME>  (43) 
Metahexamide

>  <ID>  (43) 


>  <INCHI_IDENTIFIER>  (43) 
InChI=1S/C14H21N3O3S/c1-10-7-8-12(9-13(10)15)21(19,20)17-14(18)16-11-5-3-2-4-6-11/h7-9,11H,2-6,15H2,1H3,(H2,16,17,18)

>  <INCHI_KEY>  (43) 
XXYTXQGCRQLRHA-UHFFFAOYSA-N

>  <INTERNATIONAL_BRANDS>  (43) 
nan

>  <JCHEM_ACCEPTOR_COUNT>  (43) 
4

>  <JCHEM_ATOM_COUNT>  (43) 
42

>  <JCHEM_AVERAGE_POLARIZABILITY>  (43) 
32.50851332762117

>  <JCHEM_BIOAVAILABILITY>  (43) 
1

>  <JCHEM_DONOR_COUNT>  (43) 
3

>  <JCHEM_FORMAL_CHARGE>  (43) 
0

>  <JCHEM_GHOSE_FILTER>  (43) 
1

>  <JCHEM_IUPAC>  (43) 
3-(3-amino-4-methylbenzenesulfonyl)-1-cyclohexylurea

>  <JCHEM_LOGP>  (43) 
1.9417813903333334

>  <JCHEM_MDDR_LIKE_RULE>  (43) 
0

>  <JCHEM_NUMBER_OF_RINGS>  (43) 
2

>  <JCHEM_PHYSIOLOGICAL_CHARGE>  (43) 
-1

>  <JCHEM_PKA>  (43) 
18.132556060867163

>  <JCHEM_PKA_STRONGEST_ACIDIC>  (43) 
4.324815845953748

>  <JCHEM_PKA_STRONGEST_BASIC>  (43) 
2.2080256846160404

>  <JCHEM_POLAR_SURFACE_AREA>  (43) 
101.28999999999999

>  <JCHEM_REFRACTIVITY>  (43) 
82.11099999999999

>  <JCHEM_ROTATABLE_BOND_COUNT>  (43) 
2

>  <JCHEM_RULE_OF_FIVE>  (43) 
1

>  <JCHEM_TRADITIONAL_IUPAC>  (43) 
metahexamide

>  <JCHEM_VEBER_RULE>  (43) 
0

>  <MOLECULAR_WEIGHT>  (43) 
311.4

>  <PRODUCTS>  (43) 
nan

>  <SALTS>  (43) 
nan

>  <SECONDARY_ACCESSION_NUMBERS>  (43) 
nan

>  <SMILES>  (43) 
CC1=CC=C(C=C1N)S(=O)(=O)NC(=O)NC1CCCCC1

>  <SYNONYMS>  (43) 
nan

>  <ECFP_FP>  (43) 
<rdkit.DataStructs.cDataStructs.ExplicitBitVect object at 0xa26ccfe90>

>  <pki_G>  (43) 
6.010955

>  <pki_D>  (43) 
5.647971

>  <pki_B>  (43) 
5.588644

>  <pki_A>  (43) 
5.51882

>  <SelB>  (43) 
0.422311

>  <SelA>  (43) 
0.492135

>  <SelD>  (43) 
0.362984

>  <AvgABSel>  (43) 
0.457223

>  <MACCS_FP>  (43) 
[0. 0. 0. 0. 0. 0. 0. 0. 0. 0. 0. 0. 0. 0. 0. 0. 0. 0. 0. 0. 0. 0. 0. 0.
 0. 0. 0. 0. 0. 0. 0. 0. 1. 1. 0. 0. 0. 1. 0. 0. 0. 0. 0. 1. 0. 0. 0. 0.
 0. 0. 0. 1. 0. 0. 0. 1. 0. 0. 1. 1. 1. 1. 0. 0. 1. 0. 0. 1. 0. 1. 0. 0.
 0. 1. 0. 0. 0. 1. 0. 0. 0. 1. 0. 0. 1. 0. 0. 0. 1. 1. 1. 1. 0. 0. 1. 0.
 0. 1. 0. 0. 0. 0. 1. 0. 1. 0. 1. 0. 0. 0. 1. 1. 1. 0. 0. 0. 0. 1. 1. 0.
 0. 0. 0. 0. 1. 0. 0. 0. 1. 1. 1. 1. 0. 1. 0. 1. 1. 0. 0. 0. 0. 0. 1. 0.
 1. 1. 1. 1. 1. 0. 1. 1. 0. 0. 1. 0. 1. 0. 1. 1. 1. 1. 1. 1. 1. 1. 0.]

>  <MACCS_pki_G>  (43) 
5.890101

>  <MACCS_pki_D>  (43) 
6.11705

>  <MACCS_pki_B>  (43) 
5.533487

>  <MACCS_pki_A>  (43) 
5.768821

>  <MACCS_SelB>  (43) 
0.356613

>  <MACCS_SelA>  (43) 
0.121279

>  <MACCS_SelD>  (43) 
-0.226949

>  <MACCSAvgABSel>  (43) 
0.238946

>  <Pharm2D_FP>  (43) 
[0. 0. 0. ... 0. 0. 0.]

>  <Pharm2D_pki_G>  (43) 
6.049589

>  <Pharm2D_pki_D>  (43) 
5.528857

>  <Pharm2D_pki_B>  (43) 
5.40279

>  <Pharm2D_pki_A>  (43) 
5.418103

>  <Pharm2D_SelB>  (43) 
0.646799

>  <Pharm2D_SelA>  (43) 
0.631485

>  <Pharm2D_SelD>  (43) 
0.520732

>  <Pharm2DAvgABSel>  (43) 
0.639142

>  <QED>  (43) 
0.741944

$$$$
DB07280
     RDKit          2D

 30 33  0  0  0  0  0  0  0  0999 V2000
    0.4711    2.8191    0.0000 C   0  0  0  0  0  0  0  0  0  0  0  0
    1.1855    2.4066    0.0000 N   0  0  0  0  0  0  0  0  0  0  0  0
    1.1855    1.5816    0.0000 C   0  0  0  0  0  0  0  0  0  0  0  0
    0.4711    1.1691    0.0000 C   0  0  0  0  0  0  0  0  0  0  0  0
   -0.2434    1.5816    0.0000 C   0  0  0  0  0  0  0  0  0  0  0  0
   -0.2434    2.4066    0.0000 N   0  0  0  0  0  0  0  0  0  0  0  0
    0.4711    0.3441    0.0000 C   0  0  0  0  0  0  0  0  0  0  0  0
   -0.2434   -0.0684    0.0000 C   0  0  0  0  0  0  0  0  0  0  0  0
   -0.2434   -0.8934    0.0000 C   0  0  0  0  0  0  0  0  0  0  0  0
    0.4711   -1.3059    0.0000 C   0  0  0  0  0  0  0  0  0  0  0  0
    1.1855   -0.8934    0.0000 C   0  0  0  0  0  0  0  0  0  0  0  0
    1.1855   -0.0684    0.0000 C   0  0  0  0  0  0  0  0  0  0  0  0
    4.0434    0.7566    0.0000 C   0  0  0  0  0  0  0  0  0  0  0  0
    4.7579    0.3441    0.0000 N   0  0  0  0  0  0  0  0  0  0  0  0
    4.7579   -0.4809    0.0000 C   0  0  0  0  0  0  0  0  0  0  0  0
    4.0434   -0.8934    0.0000 C   0  0  0  0  0  0  0  0  0  0  0  0
    3.3289   -0.4809    0.0000 C   0  0  0  0  0  0  0  0  0  0  0  0
    3.3289    0.3441    0.0000 C   0  0  0  0  0  0  0  0  0  0  0  0
    6.1868   -0.4809    0.0000 C   0  0  0  0  0  0  0  0  0  0  0  0
    6.9013   -0.8934    0.0000 C   0  0  0  0  0  0  0  0  0  0  0  0
    6.9013   -1.7184    0.0000 O   0  0  0  0  0  0  0  0  0  0  0  0
    6.1868   -2.1309    0.0000 C   0  0  0  0  0  0  0  0  0  0  0  0
    5.4724   -1.7184    0.0000 C   0  0  0  0  0  0  0  0  0  0  0  0
    5.4724   -0.8934    0.0000 N   0  0  0  0  0  0  0  0  0  0  0  0
    1.9000    1.1691    0.0000 C   0  0  0  0  0  0  0  0  0  0  0  0
    2.6145    0.7566    0.0000 C   0  0  0  0  0  0  0  0  0  0  0  0
    0.4711   -2.1309    0.0000 N   0  0  0  0  0  0  0  0  0  0  0  0
    1.1855   -2.5434    0.0000 C   0  0  0  0  0  0  0  0  0  0  0  0
   -0.2434   -2.5434    0.0000 C   0  0  0  0  0  0  0  0  0  0  0  0
   -0.9579    1.1691    0.0000 N   0  0  0  0  0  0  0  0  0  0  0  0
  1  2  2  0
  1  6  1  0
  2  3  1  0
  3 25  1  0
  3  4  2  0
  4  7  1  0
  4  5  1  0
  5 30  1  0
  5  6  2  0
  7 12  1  0
  7  8  2  0
  8  9  1  0
  9 10  2  0
 10 27  1  0
 10 11  1  0
 11 12  2  0
 13 14  2  0
 13 18  1  0
 14 15  1  0
 15 24  1  0
 15 16  2  0
 16 17  1  0
 17 18  2  0
 18 26  1  0
 19 20  1  0
 19 24  1  0
 20 21  1  0
 21 22  1  0
 22 23  1  0
 23 24  1  0
 25 26  3  0
 27 28  1  0
 27 29  1  0
M  END
>  <ALOGPS_LOGP>  (44) 
3.0

>  <ALOGPS_LOGS>  (44) 
-4.36

>  <ALOGPS_SOLUBILITY>  (44) 
1.76e-02 g/l

>  <DATABASE_NAME>  (44) 
drugbank

>  <DRUGBANK_ID>  (44) 
DB07280

>  <DRUG_GROUPS>  (44) 
experimental

>  <EXACT_MASS>  (44) 
400.20115942

>  <FORMULA>  (44) 
C23H24N6O

>  <GENERIC_NAME>  (44) 
5-[4-(DIMETHYLAMINO)PHENYL]-6-[(6-MORPHOLIN-4-YLPYRIDIN-3-YL)ETHYNYL]PYRIMIDIN-4-AMINE

>  <ID>  (44) 
89I

>  <INCHI_IDENTIFIER>  (44) 
InChI=1S/C23H24N6O/c1-28(2)19-7-5-18(6-8-19)22-20(26-16-27-23(22)24)9-3-17-4-10-21(25-15-17)29-11-13-30-14-12-29/h4-8,10,15-16H,11-14H2,1-2H3,(H2,24,26,27)

>  <INCHI_KEY>  (44) 
AINVOEOJEKKMKB-UHFFFAOYSA-N

>  <INTERNATIONAL_BRANDS>  (44) 
nan

>  <JCHEM_ACCEPTOR_COUNT>  (44) 
7

>  <JCHEM_ATOM_COUNT>  (44) 
nan

>  <JCHEM_AVERAGE_POLARIZABILITY>  (44) 
44.366985471207954

>  <JCHEM_BIOAVAILABILITY>  (44) 
1

>  <JCHEM_DONOR_COUNT>  (44) 
1

>  <JCHEM_FORMAL_CHARGE>  (44) 
0

>  <JCHEM_GHOSE_FILTER>  (44) 
1

>  <JCHEM_IUPAC>  (44) 
5-[4-(dimethylamino)phenyl]-6-{2-[6-(morpholin-4-yl)pyridin-3-yl]ethynyl}pyrimidin-4-amine

>  <JCHEM_LOGP>  (44) 
3.343784445

>  <JCHEM_MDDR_LIKE_RULE>  (44) 
0

>  <JCHEM_NUMBER_OF_RINGS>  (44) 
4

>  <JCHEM_PHYSIOLOGICAL_CHARGE>  (44) 
0

>  <JCHEM_PKA>  (44) 
nan

>  <JCHEM_PKA_STRONGEST_ACIDIC>  (44) 
nan

>  <JCHEM_PKA_STRONGEST_BASIC>  (44) 
4.55592605374964

>  <JCHEM_POLAR_SURFACE_AREA>  (44) 
80.4

>  <JCHEM_REFRACTIVITY>  (44) 
116.42529999999996

>  <JCHEM_ROTATABLE_BOND_COUNT>  (44) 
5

>  <JCHEM_RULE_OF_FIVE>  (44) 
1

>  <JCHEM_TRADITIONAL_IUPAC>  (44) 
5-[4-(dimethylamino)phenyl]-6-{2-[6-(morpholin-4-yl)pyridin-3-yl]ethynyl}pyrimidin-4-amine

>  <JCHEM_VEBER_RULE>  (44) 
0

>  <MOLECULAR_WEIGHT>  (44) 
400.4763

>  <PRODUCTS>  (44) 
nan

>  <SALTS>  (44) 
nan

>  <SECONDARY_ACCESSION_NUMBERS>  (44) 
nan

>  <SMILES>  (44) 
CN(C)C1=CC=C(C=C1)C1=C(N=CN=C1N)C#CC1=CC=C(N=C1)N1CCOCC1

>  <SYNONYMS>  (44) 
nan

>  <ECFP_FP>  (44) 
<rdkit.DataStructs.cDataStructs.ExplicitBitVect object at 0xa26a68da0>

>  <pki_G>  (44) 
6.003976

>  <pki_D>  (44) 
6.044359

>  <pki_B>  (44) 
5.610646

>  <pki_A>  (44) 
4.762789

>  <SelB>  (44) 
0.393331

>  <SelA>  (44) 
1.241188

>  <SelD>  (44) 
-0.040383

>  <AvgABSel>  (44) 
0.817259

>  <MACCS_FP>  (44) 
[0. 0. 0. 0. 0. 0. 0. 0. 0. 0. 0. 0. 0. 0. 0. 0. 0. 1. 0. 0. 0. 0. 0. 0.
 0. 0. 0. 0. 0. 0. 0. 0. 0. 0. 0. 0. 0. 0. 1. 0. 0. 0. 0. 0. 0. 0. 0. 0.
 0. 0. 0. 0. 0. 0. 0. 0. 0. 1. 0. 0. 0. 0. 1. 0. 0. 1. 0. 0. 0. 0. 0. 0.
 0. 0. 1. 1. 0. 1. 0. 0. 1. 0. 0. 0. 1. 1. 1. 0. 0. 0. 0. 0. 0. 1. 0. 1.
 0. 0. 1. 0. 1. 0. 0. 0. 0. 0. 0. 0. 0. 1. 0. 1. 0. 0. 0. 0. 0. 0. 1. 0.
 1. 1. 1. 0. 0. 1. 0. 0. 1. 1. 0. 0. 1. 1. 0. 1. 0. 1. 1. 0. 0. 0. 1. 0.
 1. 1. 0. 1. 1. 1. 1. 1. 0. 1. 0. 0. 1. 1. 1. 0. 1. 1. 1. 1. 1. 1. 0.]

>  <MACCS_pki_G>  (44) 
6.097328

>  <MACCS_pki_D>  (44) 
5.783642

>  <MACCS_pki_B>  (44) 
5.77749

>  <MACCS_pki_A>  (44) 
5.356639

>  <MACCS_SelB>  (44) 
0.319838

>  <MACCS_SelA>  (44) 
0.74069

>  <MACCS_SelD>  (44) 
0.313686

>  <MACCSAvgABSel>  (44) 
0.530264

>  <Pharm2D_FP>  (44) 
[0. 0. 0. ... 0. 0. 0.]

>  <Pharm2D_pki_G>  (44) 
6.112906

>  <Pharm2D_pki_D>  (44) 
5.423081

>  <Pharm2D_pki_B>  (44) 
5.355129

>  <Pharm2D_pki_A>  (44) 
5.531835

>  <Pharm2D_SelB>  (44) 
0.757777

>  <Pharm2D_SelA>  (44) 
0.581071

>  <Pharm2D_SelD>  (44) 
0.689824

>  <Pharm2DAvgABSel>  (44) 
0.669424

>  <QED>  (44) 
0.676465

$$$$
DB05410
     RDKit          2D

 39 43  0  0  0  0  0  0  0  0999 V2000
    2.5971    1.5861    0.0000 C   0  0  0  0  0  0  0  0  0  0  0  0
    0.0811    1.1840    0.0000 C   0  0  0  0  0  0  0  0  0  0  0  0
   -4.7243    0.4512    0.0000 C   0  0  0  0  0  0  0  0  0  0  0  0
   -5.0046   -0.3247    0.0000 C   0  0  0  0  0  0  0  0  0  0  0  0
   -3.9122    0.5964    0.0000 C   0  0  0  0  0  0  0  0  0  0  0  0
    2.6258    3.7686    0.0000 C   0  0  0  0  0  0  0  0  0  0  0  0
    1.8137    3.6234    0.0000 C   0  0  0  0  0  0  0  0  0  0  0  0
    4.2213    1.8765    0.0000 C   0  0  0  0  0  0  0  0  0  0  0  0
    0.0700    3.2086    0.0000 C   0  0  0  0  0  0  0  0  0  0  0  0
    3.4092    1.7313    0.0000 C   0  0  0  0  0  0  0  0  0  0  0  0
   -0.6128    2.7457    0.0000 C   0  0  0  0  0  0  0  0  0  0  0  0
   -3.6607   -0.8102    0.0000 C   0  0  0  0  0  0  0  0  0  0  0  0
    3.9698    3.2831    0.0000 C   0  0  0  0  0  0  0  0  0  0  0  0
    0.9728    1.2956    0.0000 C   0  0  0  0  0  0  0  0  0  0  0  0
   -4.7531   -1.7313    0.0000 C   0  0  0  0  0  0  0  0  0  0  0  0
   -1.4759    1.0320    0.0000 C   0  0  0  0  0  0  0  0  0  0  0  0
   -4.4728   -0.9554    0.0000 C   0  0  0  0  0  0  0  0  0  0  0  0
   -3.3804   -0.0342    0.0000 C   0  0  0  0  0  0  0  0  0  0  0  0
    3.1577    3.1379    0.0000 C   0  0  0  0  0  0  0  0  0  0  0  0
    4.5016    2.6524    0.0000 C   0  0  0  0  0  0  0  0  0  0  0  0
    1.5334    2.8475    0.0000 C   0  0  0  0  0  0  0  0  0  0  0  0
    0.7213    2.7023    0.0000 C   0  0  0  0  0  0  0  0  0  0  0  0
    1.7850    1.4409    0.0000 C   0  0  0  0  0  0  0  0  0  0  0  0
   -1.1956    1.8079    0.0000 C   0  0  0  0  0  0  0  0  0  0  0  0
    2.0652    2.2168    0.0000 C   0  0  0  0  0  0  0  0  0  0  0  0
   -2.5683    0.1109    0.0000 C   0  0  0  0  0  0  0  0  0  0  0  0
    2.8774    2.3620    0.0000 C   0  0  0  0  0  0  0  0  0  0  0  0
    0.4410    1.9264    0.0000 C   0  0  0  0  0  0  0  0  0  0  0  0
   -0.3835    1.9532    0.0000 C   0  0  0  0  0  0  0  0  0  0  0  0
   -4.5016   -3.1379    0.0000 N   0  0  0  0  0  0  0  0  0  0  0  0
    5.3137    2.7976    0.0000 O   0  0  0  0  0  0  0  0  0  0  0  0
    2.3168    0.8102    0.0000 O   0  0  0  0  0  0  0  0  0  0  0  0
   -1.7274    2.4387    0.0000 O   0  0  0  0  0  0  0  0  0  0  0  0
   -2.0365   -0.5197    0.0000 O   0  0  0  0  0  0  0  0  0  0  0  0
   -0.3239    1.1303    0.0000 O   0  0  0  0  0  0  0  0  0  0  0  0
   -5.3137   -3.2831    0.0000 O   0  0  0  0  0  0  0  0  0  0  0  0
   -3.9698   -3.7686    0.0000 O   0  0  0  0  0  0  0  0  0  0  0  0
   -2.2880    0.8868    0.0000 O   0  0  0  0  0  0  0  0  0  0  0  0
   -4.2213   -2.3620    0.0000 O   0  0  0  0  0  0  0  0  0  0  0  0
  4  3  2  0
  5  3  1  0
  7  6  1  0
 10  8  1  0
 11  9  1  0
 17  4  1  0
 17 12  2  0
 17 15  1  0
 18  5  2  0
 18 12  1  0
 19  6  1  0
 19 13  2  0
 20  8  1  0
 20 13  1  0
 21  7  1  0
 22  9  1  0
 22 21  1  0
 23 14  1  0
 24 16  1  0
 25 21  1  0
 25 23  1  0
 26 18  1  0
 27  1  1  0
 27 10  1  0
 27 19  1  0
 27 25  1  0
 28  2  1  0
 28 14  1  0
 28 22  1  0
 29 11  1  0
 29 24  1  0
 29 28  1  0
 31 20  2  0
 32 23  1  0
 33 24  2  0
 34 26  2  0
 35 29  1  0
 36 30  1  0
 37 30  2  0
 38 16  1  0
 38 26  1  0
 39 15  1  0
 39 30  1  0
M  CHG  2  30   1  36  -1
M  END
>  <ALOGPS_LOGP>  (45) 
2.96

>  <ALOGPS_LOGS>  (45) 
-5.35

>  <ALOGPS_SOLUBILITY>  (45) 
2.44e-03 g/l

>  <DATABASE_NAME>  (45) 
drugbank

>  <DRUGBANK_ID>  (45) 
DB05410

>  <DRUG_GROUPS>  (45) 
investigational

>  <EXACT_MASS>  (45) 
541.231181711

>  <FORMULA>  (45) 
C29H35NO9

>  <GENERIC_NAME>  (45) 
NCX 1022

>  <ID>  (45) 


>  <INCHI_IDENTIFIER>  (45) 
InChI=1S/C29H35NO9/c1-27-10-8-20(31)13-19(27)6-7-21-22-9-11-29(35,28(22,2)14-23(32)25(21)27)24(33)16-38-26(34)18-5-3-4-17(12-18)15-39-30(36)37/h3-5,12-13,21-23,25,32,35H,6-11,14-16H2,1-2H3

>  <INCHI_KEY>  (45) 
MBODWAULVMWNDB-UHFFFAOYSA-N

>  <INTERNATIONAL_BRANDS>  (45) 
nan

>  <JCHEM_ACCEPTOR_COUNT>  (45) 
8

>  <JCHEM_ATOM_COUNT>  (45) 
74

>  <JCHEM_AVERAGE_POLARIZABILITY>  (45) 
56.81655716023855

>  <JCHEM_BIOAVAILABILITY>  (45) 
1

>  <JCHEM_DONOR_COUNT>  (45) 
2

>  <JCHEM_FORMAL_CHARGE>  (45) 
0

>  <JCHEM_GHOSE_FILTER>  (45) 
0

>  <JCHEM_IUPAC>  (45) 
2-{1,10-dihydroxy-9a,11a-dimethyl-7-oxo-1H,2H,3H,3aH,3bH,4H,5H,7H,8H,9H,9aH,9bH,10H,11H,11aH-cyclopenta[a]phenanthren-1-yl}-2-oxoethyl 3-[(nitrooxy)methyl]benzoate

>  <JCHEM_LOGP>  (45) 
3.9280680710000015

>  <JCHEM_MDDR_LIKE_RULE>  (45) 
1

>  <JCHEM_NUMBER_OF_RINGS>  (45) 
5

>  <JCHEM_PHYSIOLOGICAL_CHARGE>  (45) 
0

>  <JCHEM_PKA>  (45) 
14.879330820937497

>  <JCHEM_PKA_STRONGEST_ACIDIC>  (45) 
12.612693557831253

>  <JCHEM_PKA_STRONGEST_BASIC>  (45) 
-2.846864233902269

>  <JCHEM_POLAR_SURFACE_AREA>  (45) 
155.95

>  <JCHEM_REFRACTIVITY>  (45) 
140.73189999999997

>  <JCHEM_ROTATABLE_BOND_COUNT>  (45) 
8

>  <JCHEM_RULE_OF_FIVE>  (45) 
0

>  <JCHEM_TRADITIONAL_IUPAC>  (45) 
2-{1,10-dihydroxy-9a,11a-dimethyl-7-oxo-2H,3H,3aH,3bH,4H,5H,8H,9H,9bH,10H,11H-cyclopenta[a]phenanthren-1-yl}-2-oxoethyl 3-[(nitrooxy)methyl]benzoate

>  <JCHEM_VEBER_RULE>  (45) 
0

>  <MOLECULAR_WEIGHT>  (45) 
541.597

>  <PRODUCTS>  (45) 
nan

>  <SALTS>  (45) 
nan

>  <SECONDARY_ACCESSION_NUMBERS>  (45) 
nan

>  <SMILES>  (45) 
CC12CC(O)C3C(CCC4=CC(=O)CCC34C)C1CCC2(O)C(=O)COC(=O)C1=CC=CC(CON(=O)=O)=C1

>  <SYNONYMS>  (45) 
nan

>  <ECFP_FP>  (45) 
<rdkit.DataStructs.cDataStructs.ExplicitBitVect object at 0xa269d3cb0>

>  <pki_G>  (45) 
5.999914

>  <pki_D>  (45) 
5.993806

>  <pki_B>  (45) 
5.366365

>  <pki_A>  (45) 
5.818013

>  <SelB>  (45) 
0.633549

>  <SelA>  (45) 
0.181901

>  <SelD>  (45) 
0.006108

>  <AvgABSel>  (45) 
0.407725

>  <MACCS_FP>  (45) 
[0. 0. 0. 0. 0. 0. 0. 0. 0. 0. 0. 0. 0. 0. 0. 0. 0. 0. 0. 0. 0. 0. 0. 0.
 1. 0. 1. 0. 0. 0. 0. 0. 0. 0. 0. 0. 0. 0. 0. 0. 0. 0. 0. 0. 0. 0. 0. 0.
 1. 1. 1. 0. 0. 0. 0. 0. 0. 0. 0. 0. 0. 0. 0. 1. 0. 0. 1. 0. 0. 0. 1. 1.
 1. 0. 0. 0. 1. 0. 0. 0. 0. 0. 0. 0. 0. 0. 0. 0. 0. 1. 1. 1. 0. 0. 1. 0.
 1. 0. 0. 1. 0. 1. 1. 0. 1. 1. 1. 0. 1. 1. 0. 1. 1. 0. 0. 1. 1. 0. 1. 1.
 0. 0. 1. 1. 1. 0. 1. 1. 1. 1. 1. 1. 1. 0. 0. 0. 1. 0. 1. 1. 1. 0. 0. 1.
 0. 1. 1. 1. 1. 1. 1. 0. 1. 1. 1. 1. 0. 1. 0. 1. 1. 1. 1. 1. 1. 1. 0.]

>  <MACCS_pki_G>  (45) 
6.097653

>  <MACCS_pki_D>  (45) 
5.990256

>  <MACCS_pki_B>  (45) 
5.594488

>  <MACCS_pki_A>  (45) 
5.875652

>  <MACCS_SelB>  (45) 
0.503165

>  <MACCS_SelA>  (45) 
0.222001

>  <MACCS_SelD>  (45) 
0.107397

>  <MACCSAvgABSel>  (45) 
0.362583

>  <Pharm2D_FP>  (45) 
[0. 0. 0. ... 0. 0. 0.]

>  <Pharm2D_pki_G>  (45) 
6.134715

>  <Pharm2D_pki_D>  (45) 
5.60971

>  <Pharm2D_pki_B>  (45) 
5.363736

>  <Pharm2D_pki_A>  (45) 
5.438032

>  <Pharm2D_SelB>  (45) 
0.770978

>  <Pharm2D_SelA>  (45) 
0.696683

>  <Pharm2D_SelD>  (45) 
0.525004

>  <Pharm2DAvgABSel>  (45) 
0.733831

>  <QED>  (45) 
0.300456

$$$$
DB02075
     RDKit          2D

 23 25  0  0  1  0  0  0  0  0999 V2000
    1.2949    0.4125    0.0000 C   0  0  0  0  0  0  0  0  0  0  0  0
    1.7798    3.9841    0.0000 C   0  0  0  0  0  0  0  0  0  0  0  0
    3.9934    0.8250    0.0000 C   0  0  0  0  0  0  0  0  0  0  0  0
    1.7798    1.0799    0.0000 C   0  0  0  0  0  0  0  0  0  0  0  0
    1.5249    3.1994    0.0000 C   0  0  0  0  0  0  0  0  0  0  0  0
    2.5645    0.8250    0.0000 C   0  0  0  0  0  0  0  0  0  0  0  0
    1.5249    1.8646    0.0000 C   0  0  0  0  0  0  0  0  0  0  0  0
    2.5645    0.0000    0.0000 C   0  0  0  0  0  0  0  0  0  0  0  0
    0.7403    2.9445    0.0000 C   0  0  0  0  0  0  0  0  0  0  0  0
    0.7403    2.1195    0.0000 C   0  0  0  0  0  0  0  0  0  0  0  0
    3.2789   -0.4125    0.0000 C   0  0  0  0  0  0  0  0  0  0  0  0
    1.7798   -0.2549    0.0000 N   0  0  0  0  0  0  0  0  0  0  0  0
    3.2789    1.2375    0.0000 N   0  0  0  0  0  0  0  0  0  0  0  0
    3.9934    0.0000    0.0000 N   0  0  0  0  0  0  0  0  0  0  0  0
    2.0098    2.5320    0.0000 N   0  0  0  0  0  0  0  0  0  0  0  0
    0.0728    3.4294    0.0000 O   0  0  0  0  0  0  0  0  0  0  0  0
    0.0728    1.6346    0.0000 O   0  0  0  0  0  0  0  0  0  0  0  0
    3.2789   -1.2375    0.0000 O   0  0  0  0  0  0  0  0  0  0  0  0
    3.0967    5.7248    0.0000 O   0  0  0  0  0  0  0  0  0  0  0  0
    3.6264    4.6853    0.0000 O   0  0  0  0  0  0  0  0  0  0  0  0
    2.0571    5.1951    0.0000 O   0  0  0  0  0  0  0  0  0  0  0  0
    2.5868    4.1556    0.0000 O   0  0  0  0  0  0  0  0  0  0  0  0
    2.8417    4.9402    0.0000 P   0  0  0  0  0  0  0  0  0  0  0  0
  4  1  2  0
  5  2  1  1
  6  4  1  0
  7  4  1  1
  8  6  2  0
  9  5  1  0
 10  7  1  0
 10  9  1  0
 11  8  1  0
 12  1  1  0
 12  8  1  0
 13  3  2  0
 13  6  1  0
 14  3  1  0
 14 11  2  0
 15  5  1  0
 15  7  1  0
  9 16  1  6
 10 17  1  6
 18 11  1  0
 22  2  1  0
 23 19  1  0
 23 20  1  0
 23 21  2  0
 23 22  1  0
M  END
>  <ALOGPS_LOGP>  (46) 
-1.78

>  <ALOGPS_LOGS>  (46) 
-1.69

>  <ALOGPS_SOLUBILITY>  (46) 
6.99e+00 g/l

>  <DATABASE_NAME>  (46) 
drugbank

>  <DRUGBANK_ID>  (46) 
DB02075

>  <DRUG_GROUPS>  (46) 
experimental

>  <EXACT_MASS>  (46) 
346.067835366

>  <FORMULA>  (46) 
C11H15N4O7P

>  <GENERIC_NAME>  (46) 
(1s)-1(9-Deazahypoxanthin-9yl)1,4-Dideoxy-1,4-Imino-D-Ribitol-5-Phosphate

>  <ID>  (46) 


>  <INCHI_IDENTIFIER>  (46) 
InChI=1S/C11H15N4O7P/c16-9-5(2-22-23(19,20)21)15-7(10(9)17)4-1-12-8-6(4)13-3-14-11(8)18/h1,3,5,7,9-10,12,15-17H,2H2,(H,13,14,18)(H2,19,20,21)/t5-,7+,9-,10+/m1/s1

>  <INCHI_KEY>  (46) 
VJTAXXUIRYOXBT-KUBHLMPHSA-N

>  <INTERNATIONAL_BRANDS>  (46) 
nan

>  <JCHEM_ACCEPTOR_COUNT>  (46) 
9

>  <JCHEM_ATOM_COUNT>  (46) 
nan

>  <JCHEM_AVERAGE_POLARIZABILITY>  (46) 
30.34328357176007

>  <JCHEM_BIOAVAILABILITY>  (46) 
1

>  <JCHEM_DONOR_COUNT>  (46) 
7

>  <JCHEM_FORMAL_CHARGE>  (46) 
0

>  <JCHEM_GHOSE_FILTER>  (46) 
0

>  <JCHEM_IUPAC>  (46) 
{[(2R,3R,4S,5S)-3,4-dihydroxy-5-{4-hydroxy-5H-pyrrolo[3,2-d]pyrimidin-7-yl}pyrrolidin-2-yl]methoxy}phosphonic acid

>  <JCHEM_LOGP>  (46) 
-2.9642524778680825

>  <JCHEM_MDDR_LIKE_RULE>  (46) 
0

>  <JCHEM_NUMBER_OF_RINGS>  (46) 
3

>  <JCHEM_PHYSIOLOGICAL_CHARGE>  (46) 
-1

>  <JCHEM_PKA>  (46) 
1.6209024709761906

>  <JCHEM_PKA_STRONGEST_ACIDIC>  (46) 
0.8952734877972741

>  <JCHEM_PKA_STRONGEST_BASIC>  (46) 
9.135037137747078

>  <JCHEM_POLAR_SURFACE_AREA>  (46) 
181.04999999999998

>  <JCHEM_REFRACTIVITY>  (46) 
75.4408

>  <JCHEM_ROTATABLE_BOND_COUNT>  (46) 
4

>  <JCHEM_RULE_OF_FIVE>  (46) 
0

>  <JCHEM_TRADITIONAL_IUPAC>  (46) 
[(2R,3R,4S,5S)-3,4-dihydroxy-5-{4-hydroxy-5H-pyrrolo[3,2-d]pyrimidin-7-yl}pyrrolidin-2-yl]methoxyphosphonic acid

>  <JCHEM_VEBER_RULE>  (46) 
0

>  <MOLECULAR_WEIGHT>  (46) 
346.2332

>  <PRODUCTS>  (46) 
nan

>  <SALTS>  (46) 
nan

>  <SECONDARY_ACCESSION_NUMBERS>  (46) 
EXPT01929

>  <SMILES>  (46) 
[H][C@]1(COP(O)(O)=O)N[C@@]([H])(C2=CNC3=C2N=CN=C3O)[C@]([H])(O)[C@]1([H])O

>  <SYNONYMS>  (46) 
nan

>  <ECFP_FP>  (46) 
<rdkit.DataStructs.cDataStructs.ExplicitBitVect object at 0xa266f2df0>

>  <pki_G>  (46) 
5.99075

>  <pki_D>  (46) 
6.805012

>  <pki_B>  (46) 
5.657998

>  <pki_A>  (46) 
5.233527

>  <SelB>  (46) 
0.332752

>  <SelA>  (46) 
0.757224

>  <SelD>  (46) 
-0.814262

>  <AvgABSel>  (46) 
0.544988

>  <MACCS_FP>  (46) 
[0. 0. 0. 0. 0. 0. 0. 0. 0. 0. 0. 0. 0. 0. 0. 0. 0. 0. 0. 0. 0. 0. 0. 0.
 0. 0. 0. 0. 0. 1. 0. 0. 0. 0. 0. 0. 0. 0. 0. 0. 0. 0. 0. 1. 0. 0. 0. 0.
 1. 0. 0. 0. 0. 1. 1. 0. 0. 0. 0. 0. 0. 0. 1. 0. 0. 1. 0. 0. 0. 1. 0. 0.
 1. 0. 0. 0. 0. 1. 0. 1. 1. 0. 0. 1. 0. 0. 0. 0. 0. 1. 1. 1. 1. 0. 0. 1.
 1. 1. 1. 0. 0. 1. 1. 0. 1. 1. 1. 0. 0. 1. 1. 1. 1. 1. 0. 0. 0. 1. 0. 0.
 1. 1. 0. 0. 1. 1. 1. 1. 0. 0. 1. 1. 0. 0. 0. 0. 0. 1. 0. 1. 1. 0. 1. 1.
 0. 0. 1. 0. 1. 0. 1. 1. 1. 1. 0. 1. 1. 1. 1. 1. 0. 1. 1. 1. 1. 1. 0.]

>  <MACCS_pki_G>  (46) 
6.730772

>  <MACCS_pki_D>  (46) 
6.143855

>  <MACCS_pki_B>  (46) 
6.02635

>  <MACCS_pki_A>  (46) 
5.711976

>  <MACCS_SelB>  (46) 
0.704422

>  <MACCS_SelA>  (46) 
1.018796

>  <MACCS_SelD>  (46) 
0.586917

>  <MACCSAvgABSel>  (46) 
0.861609

>  <Pharm2D_FP>  (46) 
[0. 0. 0. ... 0. 0. 0.]

>  <Pharm2D_pki_G>  (46) 
6.28526

>  <Pharm2D_pki_D>  (46) 
6.850926

>  <Pharm2D_pki_B>  (46) 
5.646482

>  <Pharm2D_pki_A>  (46) 
5.633417

>  <Pharm2D_SelB>  (46) 
0.638779

>  <Pharm2D_SelA>  (46) 
0.651844

>  <Pharm2D_SelD>  (46) 
-0.565666

>  <Pharm2DAvgABSel>  (46) 
0.645311

>  <QED>  (46) 
0.322024

$$$$
DB04060
     RDKit          2D

 20 21  0  0  1  0  0  0  0  0999 V2000
   -0.6110   -1.8216    0.0000 C   0  0  0  0  0  0  0  0  0  0  0  0
   -0.7604   -0.4005    0.0000 C   0  0  0  0  0  0  0  0  0  0  0  0
   -0.6548    1.8053    0.0000 C   0  0  0  0  0  0  0  0  0  0  0  0
    0.3957    0.4394    0.0000 C   0  0  0  0  0  0  0  0  0  0  0  0
   -2.7743    2.0602    0.0000 C   0  0  0  0  0  0  0  0  0  0  0  0
   -0.2754   -1.0679    0.0000 C   0  0  0  0  0  0  0  0  0  0  0  0
   -0.4248    0.3532    0.0000 C   0  0  0  0  0  0  0  0  0  0  0  0
   -1.3222    2.2902    0.0000 C   0  0  0  0  0  0  0  0  0  0  0  0
   -0.9097    1.0206    0.0000 C   0  0  0  0  0  0  0  0  0  0  0  0
   -1.9897    1.8053    0.0000 C   0  0  0  0  0  0  0  0  0  0  0  0
    0.5450   -0.9817    0.0000 C   0  0  0  0  0  0  0  0  0  0  0  0
    0.8806   -0.2280    0.0000 N   0  0  0  0  0  0  0  0  0  0  0  0
   -1.3222    3.1152    0.0000 O   0  0  0  0  0  0  0  0  0  0  0  0
    1.0300   -1.6491    0.0000 O   0  0  0  0  0  0  0  0  0  0  0  0
   -4.5151    3.3770    0.0000 O   0  0  0  0  0  0  0  0  0  0  0  0
   -3.4755    3.9067    0.0000 O   0  0  0  0  0  0  0  0  0  0  0  0
   -3.9854    2.3375    0.0000 O   0  0  0  0  0  0  0  0  0  0  0  0
   -2.9458    2.8672    0.0000 O   0  0  0  0  0  0  0  0  0  0  0  0
   -1.7347    1.0206    0.0000 O   0  0  0  0  0  0  0  0  0  0  0  0
   -3.7304    3.1221    0.0000 P   0  0  0  0  0  0  0  0  0  0  0  0
  6  1  1  0
  6  2  2  0
  7  2  1  0
  7  4  2  0
  8  3  1  0
  9  3  1  0
  9  7  1  6
 10  5  1  6
 10  8  1  0
 11  6  1  0
 12  4  1  0
 12 11  2  0
  8 13  1  1
 14 11  1  0
 18  5  1  0
 19  9  1  0
 19 10  1  0
 20 15  1  0
 20 16  1  0
 20 17  2  0
 20 18  1  0
M  END
>  <ALOGPS_LOGP>  (47) 
-0.82

>  <ALOGPS_LOGS>  (47) 
-1.58

>  <ALOGPS_SOLUBILITY>  (47) 
7.94e+00 g/l

>  <DATABASE_NAME>  (47) 
drugbank

>  <DRUGBANK_ID>  (47) 
DB04060

>  <DRUG_GROUPS>  (47) 
experimental

>  <EXACT_MASS>  (47) 
305.066438383

>  <FORMULA>  (47) 
C11H16NO7P

>  <GENERIC_NAME>  (47) 
(5-Methyl-6-Oxo-1,6-Dihydro-Pyridin-3-Yl)-1,2-Dideoxy-Ribofuranose-5-Monophosphate

>  <ID>  (47) 


>  <INCHI_IDENTIFIER>  (47) 
InChI=1S/C11H16NO7P/c1-6-2-7(4-12-11(6)14)9-3-8(13)10(19-9)5-18-20(15,16)17/h2,4,8-10,13H,3,5H2,1H3,(H,12,14)(H2,15,16,17)/t8-,9+,10+/m0/s1

>  <INCHI_KEY>  (47) 
MUWYCJQCZPFLFI-IVZWLZJFSA-N

>  <INTERNATIONAL_BRANDS>  (47) 
nan

>  <JCHEM_ACCEPTOR_COUNT>  (47) 
7

>  <JCHEM_ATOM_COUNT>  (47) 
nan

>  <JCHEM_AVERAGE_POLARIZABILITY>  (47) 
28.059246838267008

>  <JCHEM_BIOAVAILABILITY>  (47) 
1

>  <JCHEM_DONOR_COUNT>  (47) 
4

>  <JCHEM_FORMAL_CHARGE>  (47) 
0

>  <JCHEM_GHOSE_FILTER>  (47) 
0

>  <JCHEM_IUPAC>  (47) 
{[(2R,3S,5R)-3-hydroxy-5-(6-hydroxy-5-methylpyridin-3-yl)oxolan-2-yl]methoxy}phosphonic acid

>  <JCHEM_LOGP>  (47) 
-1.3927083585968756

>  <JCHEM_MDDR_LIKE_RULE>  (47) 
0

>  <JCHEM_NUMBER_OF_RINGS>  (47) 
2

>  <JCHEM_PHYSIOLOGICAL_CHARGE>  (47) 
-2

>  <JCHEM_PKA>  (47) 
6.262257213227764

>  <JCHEM_PKA_STRONGEST_ACIDIC>  (47) 
1.213881826880589

>  <JCHEM_PKA_STRONGEST_BASIC>  (47) 
2.533426992047936

>  <JCHEM_POLAR_SURFACE_AREA>  (47) 
129.34000000000003

>  <JCHEM_REFRACTIVITY>  (47) 
68.16829999999999

>  <JCHEM_ROTATABLE_BOND_COUNT>  (47) 
4

>  <JCHEM_RULE_OF_FIVE>  (47) 
1

>  <JCHEM_TRADITIONAL_IUPAC>  (47) 
[(2R,3S,5R)-3-hydroxy-5-(6-hydroxy-5-methylpyridin-3-yl)oxolan-2-yl]methoxyphosphonic acid

>  <JCHEM_VEBER_RULE>  (47) 
0

>  <MOLECULAR_WEIGHT>  (47) 
305.221

>  <PRODUCTS>  (47) 
nan

>  <SALTS>  (47) 
nan

>  <SECONDARY_ACCESSION_NUMBERS>  (47) 
EXPT02250

>  <SMILES>  (47) 
[H][C@]1(O)C[C@@]([H])(O[C@]1([H])COP(O)(O)=O)C1=CN=C(O)C(C)=C1

>  <SYNONYMS>  (47) 
nan

>  <ECFP_FP>  (47) 
<rdkit.DataStructs.cDataStructs.ExplicitBitVect object at 0xa2693d030>

>  <pki_G>  (47) 
5.968526

>  <pki_D>  (47) 
5.688443

>  <pki_B>  (47) 
5.369989

>  <pki_A>  (47) 
5.116537

>  <SelB>  (47) 
0.598537

>  <SelA>  (47) 
0.85199

>  <SelD>  (47) 
0.280083

>  <AvgABSel>  (47) 
0.725263

>  <MACCS_FP>  (47) 
[0. 0. 0. 0. 0. 0. 0. 0. 0. 0. 0. 0. 0. 0. 0. 0. 0. 0. 0. 0. 0. 0. 0. 0.
 0. 0. 0. 0. 0. 1. 0. 0. 0. 0. 0. 0. 0. 0. 0. 0. 0. 0. 0. 1. 0. 0. 0. 0.
 1. 0. 0. 0. 0. 0. 0. 0. 0. 1. 0. 0. 0. 0. 1. 0. 0. 1. 0. 0. 0. 1. 0. 0.
 1. 0. 0. 0. 0. 0. 0. 0. 0. 0. 0. 1. 0. 0. 0. 0. 0. 1. 1. 0. 1. 0. 0. 0.
 1. 1. 1. 0. 0. 0. 1. 0. 1. 0. 1. 0. 0. 1. 1. 0. 1. 1. 0. 0. 0. 1. 0. 0.
 1. 1. 0. 0. 1. 0. 1. 1. 1. 1. 1. 1. 1. 0. 0. 0. 0. 1. 0. 1. 1. 0. 0. 1.
 1. 0. 1. 0. 1. 0. 1. 0. 1. 1. 0. 1. 1. 1. 0. 1. 1. 1. 1. 1. 1. 1. 0.]

>  <MACCS_pki_G>  (47) 
6.501404

>  <MACCS_pki_D>  (47) 
5.680667

>  <MACCS_pki_B>  (47) 
5.866684

>  <MACCS_pki_A>  (47) 
5.565179

>  <MACCS_SelB>  (47) 
0.634719

>  <MACCS_SelA>  (47) 
0.936224

>  <MACCS_SelD>  (47) 
0.820737

>  <MACCSAvgABSel>  (47) 
0.785472

>  <Pharm2D_FP>  (47) 
[0. 0. 0. ... 0. 0. 0.]

>  <Pharm2D_pki_G>  (47) 
5.923295

>  <Pharm2D_pki_D>  (47) 
5.678852

>  <Pharm2D_pki_B>  (47) 
5.467569

>  <Pharm2D_pki_A>  (47) 
5.312112

>  <Pharm2D_SelB>  (47) 
0.455725

>  <Pharm2D_SelA>  (47) 
0.611183

>  <Pharm2D_SelD>  (47) 
0.244443

>  <Pharm2DAvgABSel>  (47) 
0.533454

>  <QED>  (47) 
0.588039

$$$$
DB04280
     RDKit          2D

 20 21  0  0  1  0  0  0  0  0999 V2000
    4.9540   -2.5798    0.0000 C   0  0  0  0  0  0  0  0  0  0  0  0
    4.4691   -1.9124    0.0000 C   0  0  0  0  0  0  0  0  0  0  0  0
    3.4186   -0.5465    0.0000 C   0  0  0  0  0  0  0  0  0  0  0  0
    1.2991   -0.2916    0.0000 C   0  0  0  0  0  0  0  0  0  0  0  0
    2.7512   -0.0616    0.0000 C   0  0  0  0  0  0  0  0  0  0  0  0
    2.0837   -0.5465    0.0000 C   0  0  0  0  0  0  0  0  0  0  0  0
    4.6184   -3.3335    0.0000 C   0  0  0  0  0  0  0  0  0  0  0  0
    3.1637   -1.3312    0.0000 C   0  0  0  0  0  0  0  0  0  0  0  0
    3.3130   -2.7523    0.0000 C   0  0  0  0  0  0  0  0  0  0  0  0
    3.7980   -3.4197    0.0000 N   0  0  0  0  0  0  0  0  0  0  0  0
    3.6486   -1.9986    0.0000 N   0  0  0  0  0  0  0  0  0  0  0  0
    2.7512    0.7634    0.0000 O   0  0  0  0  0  0  0  0  0  0  0  0
    5.1034   -4.0009    0.0000 O   0  0  0  0  0  0  0  0  0  0  0  0
    2.4926   -2.8385    0.0000 O   0  0  0  0  0  0  0  0  0  0  0  0
   -0.4417    1.0253    0.0000 O   0  0  0  0  0  0  0  0  0  0  0  0
    0.5979    1.5549    0.0000 O   0  0  0  0  0  0  0  0  0  0  0  0
    0.0880   -0.0143    0.0000 O   0  0  0  0  0  0  0  0  0  0  0  0
    1.1276    0.5154    0.0000 O   0  0  0  0  0  0  0  0  0  0  0  0
    2.3387   -1.3312    0.0000 O   0  0  0  0  0  0  0  0  0  0  0  0
    0.3430    0.7703    0.0000 P   0  0  0  0  0  0  0  0  0  0  0  0
  2  1  2  0
  5  3  1  0
  6  4  1  6
  6  5  1  0
  7  1  1  0
  8  3  1  0
 10  7  1  0
 10  9  2  0
 11  2  1  0
  8 11  1  6
 11  9  1  0
  5 12  1  1
  7 13  1  1
 14  9  1  0
 18  4  1  0
 19  6  1  0
 19  8  1  0
 20 15  1  0
 20 16  1  0
 20 17  2  0
 20 18  1  0
M  END
>  <ALOGPS_LOGP>  (48) 
-1.9

>  <ALOGPS_LOGS>  (48) 
-1.36

>  <ALOGPS_SOLUBILITY>  (48) 
1.34e+01 g/l

>  <DATABASE_NAME>  (48) 
drugbank

>  <DRUGBANK_ID>  (48) 
DB04280

>  <DRUG_GROUPS>  (48) 
experimental

>  <EXACT_MASS>  (48) 
310.056601978

>  <FORMULA>  (48) 
C9H15N2O8P

>  <GENERIC_NAME>  (48) 
((2r,3s,5r)-3-Hydroxy-5-(4-Hydroxy-2-Oxo-3,4-Dihydropyrimidin-1(2h)-Yl)-Tetrahydrofuran-2-Yl)Methyldihydrogen Phosphate

>  <ID>  (48) 


>  <INCHI_IDENTIFIER>  (48) 
InChI=1S/C9H15N2O8P/c12-5-3-8(11-2-1-7(13)10-9(11)14)19-6(5)4-18-20(15,16)17/h1-2,5-8,12-13H,3-4H2,(H,10,14)(H2,15,16,17)/t5-,6+,7+,8+/m0/s1

>  <INCHI_KEY>  (48) 
ILSIYJVILUIVPM-LXGUWJNJSA-N

>  <INTERNATIONAL_BRANDS>  (48) 
nan

>  <JCHEM_ACCEPTOR_COUNT>  (48) 
9

>  <JCHEM_ATOM_COUNT>  (48) 
nan

>  <JCHEM_AVERAGE_POLARIZABILITY>  (48) 
25.639140173595013

>  <JCHEM_BIOAVAILABILITY>  (48) 
1

>  <JCHEM_DONOR_COUNT>  (48) 
5

>  <JCHEM_FORMAL_CHARGE>  (48) 
0

>  <JCHEM_GHOSE_FILTER>  (48) 
0

>  <JCHEM_IUPAC>  (48) 
{[(2R,3S,5R)-5-[(4R)-2,4-dihydroxy-1,4-dihydropyrimidin-1-yl]-3-hydroxyoxolan-2-yl]methoxy}phosphonic acid

>  <JCHEM_LOGP>  (48) 
-1.2028056054043343

>  <JCHEM_MDDR_LIKE_RULE>  (48) 
0

>  <JCHEM_NUMBER_OF_RINGS>  (48) 
2

>  <JCHEM_PHYSIOLOGICAL_CHARGE>  (48) 
-1

>  <JCHEM_PKA>  (48) 
6.254235127836299

>  <JCHEM_PKA_STRONGEST_ACIDIC>  (48) 
1.263463768466491

>  <JCHEM_PKA_STRONGEST_BASIC>  (48) 
0.06692999080812201

>  <JCHEM_POLAR_SURFACE_AREA>  (48) 
152.28

>  <JCHEM_REFRACTIVITY>  (48) 
63.7232

>  <JCHEM_ROTATABLE_BOND_COUNT>  (48) 
4

>  <JCHEM_RULE_OF_FIVE>  (48) 
1

>  <JCHEM_TRADITIONAL_IUPAC>  (48) 
[(2R,3S,5R)-5-[(4R)-2,4-dihydroxy-4H-pyrimidin-1-yl]-3-hydroxyoxolan-2-yl]methoxyphosphonic acid

>  <JCHEM_VEBER_RULE>  (48) 
0

>  <MOLECULAR_WEIGHT>  (48) 
310.1978

>  <PRODUCTS>  (48) 
nan

>  <SALTS>  (48) 
nan

>  <SECONDARY_ACCESSION_NUMBERS>  (48) 
EXPT01146

>  <SMILES>  (48) 
[H][C@]1(O)C[C@@]([H])(O[C@]1([H])COP(O)(O)=O)N1C=C[C@@]([H])(O)N=C1O

>  <SYNONYMS>  (48) 
nan

>  <ECFP_FP>  (48) 
<rdkit.DataStructs.cDataStructs.ExplicitBitVect object at 0xa26961850>

>  <pki_G>  (48) 
5.963144

>  <pki_D>  (48) 
5.840003

>  <pki_B>  (48) 
5.433942

>  <pki_A>  (48) 
5.248093

>  <SelB>  (48) 
0.529203

>  <SelA>  (48) 
0.715051

>  <SelD>  (48) 
0.123141

>  <AvgABSel>  (48) 
0.622127

>  <MACCS_FP>  (48) 
[0. 0. 0. 0. 0. 0. 0. 0. 0. 0. 0. 0. 0. 0. 0. 0. 0. 0. 0. 0. 0. 0. 0. 0.
 0. 0. 0. 0. 0. 1. 0. 0. 0. 0. 0. 0. 0. 1. 0. 0. 0. 0. 0. 1. 0. 1. 0. 0.
 1. 0. 0. 0. 0. 1. 0. 0. 0. 1. 0. 0. 0. 0. 1. 0. 0. 0. 0. 0. 0. 1. 0. 0.
 1. 0. 0. 1. 0. 1. 1. 0. 1. 0. 0. 1. 0. 1. 0. 0. 0. 1. 1. 1. 1. 0. 0. 0.
 1. 1. 1. 1. 0. 0. 1. 0. 1. 0. 1. 0. 0. 1. 1. 1. 1. 0. 0. 0. 0. 1. 0. 1.
 1. 1. 1. 0. 1. 0. 1. 1. 1. 1. 1. 1. 1. 1. 0. 0. 0. 1. 0. 1. 1. 0. 1. 1.
 0. 0. 1. 0. 1. 0. 1. 0. 1. 1. 0. 1. 1. 1. 1. 1. 0. 1. 0. 1. 1. 1. 0.]

>  <MACCS_pki_G>  (48) 
6.479295

>  <MACCS_pki_D>  (48) 
5.963852

>  <MACCS_pki_B>  (48) 
5.900861

>  <MACCS_pki_A>  (48) 
5.711976

>  <MACCS_SelB>  (48) 
0.578434

>  <MACCS_SelA>  (48) 
0.767318

>  <MACCS_SelD>  (48) 
0.515443

>  <MACCSAvgABSel>  (48) 
0.672876

>  <Pharm2D_FP>  (48) 
[0. 0. 0. ... 0. 0. 0.]

>  <Pharm2D_pki_G>  (48) 
6.14691

>  <Pharm2D_pki_D>  (48) 
5.976374

>  <Pharm2D_pki_B>  (48) 
5.482016

>  <Pharm2D_pki_A>  (48) 
4.846609

>  <Pharm2D_SelB>  (48) 
0.664894

>  <Pharm2D_SelA>  (48) 
1.3003

>  <Pharm2D_SelD>  (48) 
0.170536

>  <Pharm2DAvgABSel>  (48) 
0.982597

>  <QED>  (48) 
0.39588

$$$$
DB12391
     RDKit          2D

 38 41  0  0  1  0  0  0  0  0999 V2000
    1.0360   -4.1481    0.0000 C   0  0  0  0  0  0  0  0  0  0  0  0
    0.9773   -3.3252    0.0000 C   0  0  0  0  0  0  0  0  0  0  0  0
    1.6085   -2.7940    0.0000 N   0  0  0  0  0  0  0  0  0  0  0  0
    1.2984   -2.0295    0.0000 C   0  0  0  0  0  0  0  0  0  0  0  0
    1.6590   -1.2875    0.0000 C   0  0  0  0  0  0  0  0  0  0  0  0
    1.1967   -0.6042    0.0000 C   0  0  0  0  0  0  0  0  0  0  0  0
    0.3738   -0.6629    0.0000 C   0  0  0  0  0  0  0  0  0  0  0  0
    0.0132   -1.4049    0.0000 C   0  0  0  0  0  0  0  0  0  0  0  0
    0.4755   -2.0882    0.0000 C   0  0  0  0  0  0  0  0  0  0  0  0
    0.2770   -2.8890    0.0000 S   0  0  0  0  0  0  0  0  0  0  0  0
    1.5573    0.1378    0.0000 C   0  0  0  0  0  0  0  0  0  0  0  0
    0.7344    0.0791    0.0000 C   0  0  0  0  0  0  0  0  0  0  0  0
    0.2721    0.7624    0.0000 C   0  0  0  0  0  0  0  0  0  0  0  0
    0.6327    1.5044    0.0000 C   0  0  0  0  0  0  0  0  0  0  0  0
   -0.1902    1.4457    0.0000 O   0  0  0  0  0  0  0  0  0  0  0  0
    1.4556    1.5631    0.0000 C   0  0  0  0  0  0  0  0  0  0  0  0
    1.8162    2.3052    0.0000 C   0  0  0  0  0  0  0  0  0  0  0  0
    2.6391    2.3639    0.0000 C   0  0  0  0  0  0  0  0  0  0  0  0
    2.9997    3.1059    0.0000 C   0  0  0  0  0  0  0  0  0  0  0  0
    3.8226    3.1646    0.0000 C   0  0  0  0  0  0  0  0  0  0  0  0
    4.2849    2.4813    0.0000 C   0  0  0  0  0  0  0  0  0  0  0  0
    3.9243    1.7393    0.0000 C   0  0  0  0  0  0  0  0  0  0  0  0
    3.1014    1.6806    0.0000 O   0  0  0  0  0  0  0  0  0  0  0  0
    4.3866    1.0560    0.0000 C   0  0  0  0  0  0  0  0  0  0  0  0
    4.0260    0.3140    0.0000 C   0  0  0  0  0  0  0  0  0  0  0  0
    3.2031    0.2553    0.0000 C   0  0  0  0  0  0  0  0  0  0  0  0
    2.8425   -0.4868    0.0000 C   0  0  0  0  0  0  0  0  0  0  0  0
    3.3048   -1.1701    0.0000 O   0  0  0  0  0  0  0  0  0  0  0  0
    2.0196   -0.5455    0.0000 O   0  0  0  0  0  0  0  0  0  0  0  0
    4.4883   -0.3693    0.0000 O   0  0  0  0  0  0  0  0  0  0  0  0
    5.0856    1.4942    0.0000 C   0  0  0  0  0  0  0  0  0  0  0  0
    5.1407    0.7215    0.0000 C   0  0  0  0  0  0  0  0  0  0  0  0
    5.1078    2.5400    0.0000 C   0  0  0  0  0  0  0  0  0  0  0  0
    5.5701    1.8567    0.0000 C   0  0  0  0  0  0  0  0  0  0  0  0
    6.3930    1.9155    0.0000 C   0  0  0  0  0  0  0  0  0  0  0  0
    4.1832    3.9066    0.0000 O   0  0  0  0  0  0  0  0  0  0  0  0
    2.5374    3.7892    0.0000 C   0  0  0  0  0  0  0  0  0  0  0  0
    0.5739    2.3273    0.0000 C   0  0  0  0  0  0  0  0  0  0  0  0
  1  2  1  0
  2  3  2  0
  3  4  1  0
  4  5  2  0
  5  6  1  0
  6  7  2  0
  7  8  1  0
  8  9  2  0
  4  9  1  0
  9 10  1  0
  2 10  1  0
 11  6  1  1
 11 12  1  0
 13 12  1  6
 13 14  1  0
 14 15  1  0
 13 15  1  0
 14 16  1  0
 16 17  1  0
 17 18  1  0
 18 19  1  0
 19 20  1  0
 20 21  1  0
 21 22  1  0
 22 23  2  0
 22 24  1  0
 24 25  1  0
 25 26  1  0
 26 27  1  0
 27 28  2  0
 27 29  1  0
 11 29  1  0
 25 30  1  1
 24 31  1  0
 24 32  1  0
 21 33  1  1
 33 34  1  0
 34 35  2  0
 20 36  1  6
 19 37  1  6
 14 38  1  1
M  END
>  <ALOGPS_LOGP>  (49) 
4.42

>  <ALOGPS_LOGS>  (49) 
-5.35

>  <ALOGPS_SOLUBILITY>  (49) 
2.40e-03 g/l

>  <DATABASE_NAME>  (49) 
drugbank

>  <DRUGBANK_ID>  (49) 
DB12391

>  <DRUG_GROUPS>  (49) 
investigational

>  <EXACT_MASS>  (49) 
543.265459218

>  <FORMULA>  (49) 
C30H41NO6S

>  <GENERIC_NAME>  (49) 
Sagopilone

>  <ID>  (49) 


>  <INCHI_IDENTIFIER>  (49) 
InChI=1S/C30H41NO6S/c1-7-9-20-27(34)17(2)10-8-13-30(6)25(37-30)15-22(19-11-12-23-21(14-19)31-18(3)38-23)36-26(33)16-24(32)29(4,5)28(20)35/h7,11-12,14,17,20,22,24-25,27,32,34H,1,8-10,13,15-16H2,2-6H3/t17-,20+,22-,24-,25-,27-,30+/m0/s1

>  <INCHI_KEY>  (49) 
BFZKMNSQCNVFGM-UCEYFQQTSA-N

>  <INTERNATIONAL_BRANDS>  (49) 
nan

>  <JCHEM_ACCEPTOR_COUNT>  (49) 
6

>  <JCHEM_ATOM_COUNT>  (49) 
79

>  <JCHEM_AVERAGE_POLARIZABILITY>  (49) 
59.69193448904958

>  <JCHEM_BIOAVAILABILITY>  (49) 
0

>  <JCHEM_DONOR_COUNT>  (49) 
2

>  <JCHEM_FORMAL_CHARGE>  (49) 
0

>  <JCHEM_GHOSE_FILTER>  (49) 
0

>  <JCHEM_IUPAC>  (49) 
(1S,3S,7S,10R,11S,12S,16R)-7,11-dihydroxy-8,8,12,16-tetramethyl-3-(2-methyl-1,3-benzothiazol-5-yl)-10-(prop-2-en-1-yl)-4,17-dioxabicyclo[14.1.0]heptadecane-5,9-dione

>  <JCHEM_LOGP>  (49) 
5.102378217999998

>  <JCHEM_MDDR_LIKE_RULE>  (49) 
0

>  <JCHEM_NUMBER_OF_RINGS>  (49) 
4

>  <JCHEM_PHYSIOLOGICAL_CHARGE>  (49) 
0

>  <JCHEM_PKA>  (49) 
14.71635787035969

>  <JCHEM_PKA_STRONGEST_ACIDIC>  (49) 
14.082300699466764

>  <JCHEM_PKA_STRONGEST_BASIC>  (49) 
2.8779554905747644

>  <JCHEM_POLAR_SURFACE_AREA>  (49) 
109.25000000000001

>  <JCHEM_REFRACTIVITY>  (49) 
145.71490000000003

>  <JCHEM_ROTATABLE_BOND_COUNT>  (49) 
3

>  <JCHEM_RULE_OF_FIVE>  (49) 
0

>  <JCHEM_TRADITIONAL_IUPAC>  (49) 
sagopilone

>  <JCHEM_VEBER_RULE>  (49) 
0

>  <MOLECULAR_WEIGHT>  (49) 
543.72

>  <PRODUCTS>  (49) 
nan

>  <SALTS>  (49) 
nan

>  <SECONDARY_ACCESSION_NUMBERS>  (49) 
DB05654

>  <SMILES>  (49) 
C[C@H]1CCC[C@@]2(C)O[C@H]2C[C@H](OC(=O)C[C@H](O)C(C)(C)C(=O)[C@H](CC=C)[C@H]1O)C1=CC=C2SC(C)=NC2=C1

>  <SYNONYMS>  (49) 
nan

>  <ECFP_FP>  (49) 
<rdkit.DataStructs.cDataStructs.ExplicitBitVect object at 0xa26c2b2b0>

>  <pki_G>  (49) 
5.950493

>  <pki_D>  (49) 
5.735459

>  <pki_B>  (49) 
5.382503

>  <pki_A>  (49) 
4.995152

>  <SelB>  (49) 
0.567991

>  <SelA>  (49) 
0.955342

>  <SelD>  (49) 
0.215034

>  <AvgABSel>  (49) 
0.761666

>  <MACCS_FP>  (49) 
[0. 0. 0. 0. 0. 0. 0. 0. 0. 0. 0. 0. 0. 0. 0. 0. 1. 0. 0. 0. 0. 0. 1. 0.
 0. 0. 0. 0. 0. 0. 0. 0. 0. 0. 1. 0. 1. 0. 0. 0. 0. 0. 0. 0. 0. 0. 0. 1.
 0. 0. 0. 0. 0. 0. 0. 0. 0. 1. 0. 0. 0. 0. 1. 0. 0. 1. 1. 0. 0. 0. 0. 0.
 0. 0. 1. 0. 0. 0. 0. 0. 0. 1. 0. 1. 0. 0. 0. 0. 1. 1. 1. 1. 0. 0. 0. 0.
 1. 0. 0. 1. 0. 1. 0. 0. 1. 1. 0. 0. 1. 0. 0. 0. 1. 0. 0. 1. 1. 0. 1. 0.
 1. 1. 0. 1. 0. 1. 0. 1. 1. 1. 0. 1. 1. 0. 0. 0. 1. 1. 0. 1. 1. 1. 0. 1.
 0. 0. 1. 1. 0. 1. 1. 0. 1. 0. 1. 1. 1. 1. 0. 1. 1. 1. 1. 1. 1. 1. 0.]

>  <MACCS_pki_G>  (49) 
5.914861

>  <MACCS_pki_D>  (49) 
5.714006

>  <MACCS_pki_B>  (49) 
5.525704

>  <MACCS_pki_A>  (49) 
5.652652

>  <MACCS_SelB>  (49) 
0.389157

>  <MACCS_SelA>  (49) 
0.262209

>  <MACCS_SelD>  (49) 
0.200855

>  <MACCSAvgABSel>  (49) 
0.325683

>  <Pharm2D_FP>  (49) 
[0. 0. 0. ... 0. 0. 0.]

>  <Pharm2D_pki_G>  (49) 
6.291521

>  <Pharm2D_pki_D>  (49) 
5.682902

>  <Pharm2D_pki_B>  (49) 
5.327512

>  <Pharm2D_pki_A>  (49) 
5.643056

>  <Pharm2D_SelB>  (49) 
0.964009

>  <Pharm2D_SelA>  (49) 
0.648464

>  <Pharm2D_SelD>  (49) 
0.608619

>  <Pharm2DAvgABSel>  (49) 
0.806237

>  <QED>  (49) 
0.300696

$$$$
DB13067
     RDKit          2D

 44 46  0  0  1  0  0  0  0  0999 V2000
    1.2226    5.3576    0.0000 C   0  0  0  0  0  0  0  0  0  0  0  0
    1.0245    6.1585    0.0000 C   0  0  0  0  0  0  0  0  0  0  0  0
    0.2318    6.3873    0.0000 C   0  0  0  0  0  0  0  0  0  0  0  0
    0.0337    7.1881    0.0000 O   0  0  0  0  0  0  0  0  0  0  0  0
   -0.3626    5.8153    0.0000 N   0  0  0  0  0  0  0  0  0  0  0  0
   -1.1553    6.0441    0.0000 C   0  0  0  0  0  0  0  0  0  0  0  0
   -1.7498    5.4720    0.0000 C   0  0  0  0  0  0  0  0  0  0  0  0
   -2.5424    5.7009    0.0000 O   0  0  0  0  0  0  0  0  0  0  0  0
   -1.5516    4.6712    0.0000 N   0  0  0  0  0  0  0  0  0  0  0  0
    1.6189    6.7305    0.0000 N   0  0  0  0  0  0  0  0  0  0  0  0
    2.4116    6.5017    0.0000 C   0  0  0  0  0  0  0  0  0  0  0  0
    2.6097    5.7009    0.0000 O   0  0  0  0  0  0  0  0  0  0  0  0
    3.0060    7.0737    0.0000 C   0  0  0  0  0  0  0  0  0  0  0  0
    3.7987    6.8449    0.0000 N   0  0  0  0  0  0  0  0  0  0  0  0
    3.9968    6.0441    0.0000 C   0  0  0  0  0  0  0  0  0  0  0  0
    3.4024    5.4720    0.0000 O   0  0  0  0  0  0  0  0  0  0  0  0
    4.7895    5.8153    0.0000 C   0  0  0  0  0  0  0  0  0  0  0  0
    5.0703    5.0395    0.0000 C   0  0  0  0  0  0  0  0  0  0  0  0
    5.8948    5.0668    0.0000 C   0  0  0  0  0  0  0  0  0  0  0  0
    6.1236    5.8595    0.0000 C   0  0  0  0  0  0  0  0  0  0  0  0
    5.4405    6.3220    0.0000 N   0  0  0  0  0  0  0  0  0  0  0  0
    5.4132    7.1466    0.0000 C   0  0  0  0  0  0  0  0  0  0  0  0
    4.6854    7.5352    0.0000 O   0  0  0  0  0  0  0  0  0  0  0  0
    6.1136    7.5825    0.0000 C   0  0  0  0  0  0  0  0  0  0  0  0
    6.8780    7.2721    0.0000 C   0  0  0  0  0  0  0  0  0  0  0  0
    7.4094    7.9031    0.0000 C   0  0  0  0  0  0  0  0  0  0  0  0
    6.9734    8.6036    0.0000 C   0  0  0  0  0  0  0  0  0  0  0  0
    6.1726    8.4054    0.0000 N   0  0  0  0  0  0  0  0  0  0  0  0
    5.5416    8.9368    0.0000 C   0  0  0  0  0  0  0  0  0  0  0  0
    4.7658    8.6560    0.0000 O   0  0  0  0  0  0  0  0  0  0  0  0
    5.6863    9.7490    0.0000 C   0  0  0  0  0  0  0  0  0  0  0  0
    5.0552   10.2805    0.0000 C   0  0  0  0  0  0  0  0  0  0  0  0
    4.2795    9.9997    0.0000 C   0  0  0  0  0  0  0  0  0  0  0  0
    4.1348    9.1875    0.0000 C   0  0  0  0  0  0  0  0  0  0  0  0
    3.3590    8.9067    0.0000 C   0  0  0  0  0  0  0  0  0  0  0  0
    2.7280    9.4381    0.0000 C   0  0  0  0  0  0  0  0  0  0  0  0
    2.8727   10.2503    0.0000 C   0  0  0  0  0  0  0  0  0  0  0  0
    3.6484   10.5311    0.0000 C   0  0  0  0  0  0  0  0  0  0  0  0
    1.9522    9.1573    0.0000 O   0  0  0  0  0  0  0  0  0  0  0  0
    6.4620   10.0298    0.0000 N   0  0  0  0  0  0  0  0  0  0  0  0
    6.6067   10.8420    0.0000 C   0  0  0  0  0  0  0  0  0  0  0  0
    7.3825   11.1228    0.0000 O   0  0  0  0  0  0  0  0  0  0  0  0
    5.9757   11.3734    0.0000 C   0  0  0  0  0  0  0  0  0  0  0  0
    6.4016    4.4158    0.0000 O   0  0  0  0  0  0  0  0  0  0  0  0
  2  1  1  6
  2  3  1  0
  3  4  2  0
  3  5  1  0
  5  6  1  0
  6  7  1  0
  7  8  2  0
  7  9  1  0
  2 10  1  0
 10 11  1  0
 11 12  2  0
 11 13  1  0
 13 14  1  0
 14 15  1  0
 15 16  2  0
 17 15  1  6
 17 18  1  0
 18 19  1  0
 19 20  1  0
 20 21  1  0
 17 21  1  0
 21 22  1  0
 22 23  2  0
 24 22  1  6
 24 25  1  0
 25 26  1  0
 26 27  1  0
 27 28  1  0
 24 28  1  0
 28 29  1  0
 29 30  2  0
 29 31  1  0
 31 32  1  1
 32 33  1  0
 33 34  2  0
 34 35  1  0
 35 36  2  0
 36 37  1  0
 37 38  2  0
 33 38  1  0
 36 39  1  0
 31 40  1  0
 40 41  1  0
 41 42  2  0
 41 43  1  0
 19 44  1  1
M  END
>  <ALOGPS_LOGP>  (50) 
-1.31

>  <ALOGPS_LOGS>  (50) 
-2.60

>  <ALOGPS_SOLUBILITY>  (50) 
1.56e+00 g/l

>  <DATABASE_NAME>  (50) 
drugbank

>  <DRUGBANK_ID>  (50) 
DB13067

>  <DRUG_GROUPS>  (50) 
investigational

>  <EXACT_MASS>  (50) 
617.280925864

>  <FORMULA>  (50) 
C28H39N7O9

>  <GENERIC_NAME>  (50) 
Rotigaptide

>  <ID>  (50) 


>  <INCHI_IDENTIFIER>  (50) 
InChI=1S/C28H39N7O9/c1-15(25(41)30-12-23(29)39)32-24(40)13-31-26(42)22-11-19(38)14-35(22)28(44)21-4-3-9-34(21)27(43)20(33-16(2)36)10-17-5-7-18(37)8-6-17/h5-8,15,19-22,37-38H,3-4,9-14H2,1-2H3,(H2,29,39)(H,30,41)(H,31,42)(H,32,40)(H,33,36)/t15-,19+,20-,21-,22-/m1/s1

>  <INCHI_KEY>  (50) 
GFJRASPBQLDRRY-TWTQBQJDSA-N

>  <INTERNATIONAL_BRANDS>  (50) 
nan

>  <JCHEM_ACCEPTOR_COUNT>  (50) 
9

>  <JCHEM_ATOM_COUNT>  (50) 
83

>  <JCHEM_AVERAGE_POLARIZABILITY>  (50) 
62.07895924754903

>  <JCHEM_BIOAVAILABILITY>  (50) 
0

>  <JCHEM_DONOR_COUNT>  (50) 
7

>  <JCHEM_FORMAL_CHARGE>  (50) 
0

>  <JCHEM_GHOSE_FILTER>  (50) 
0

>  <JCHEM_IUPAC>  (50) 
(2R)-N-(carbamoylmethyl)-2-(2-{[(2R,4S)-1-[(2R)-1-[(2R)-2-acetamido-3-(4-hydroxyphenyl)propanoyl]pyrrolidine-2-carbonyl]-4-hydroxypyrrolidin-2-yl]formamido}acetamido)propanamide

>  <JCHEM_LOGP>  (50) 
-4.636536208333333

>  <JCHEM_MDDR_LIKE_RULE>  (50) 
1

>  <JCHEM_NUMBER_OF_RINGS>  (50) 
3

>  <JCHEM_PHYSIOLOGICAL_CHARGE>  (50) 
0

>  <JCHEM_PKA>  (50) 
11.792793351123834

>  <JCHEM_PKA_STRONGEST_ACIDIC>  (50) 
9.501496019667458

>  <JCHEM_PKA_STRONGEST_BASIC>  (50) 
-1.9488762323832929

>  <JCHEM_POLAR_SURFACE_AREA>  (50) 
240.56999999999996

>  <JCHEM_REFRACTIVITY>  (50) 
152.5585

>  <JCHEM_ROTATABLE_BOND_COUNT>  (50) 
12

>  <JCHEM_RULE_OF_FIVE>  (50) 
0

>  <JCHEM_TRADITIONAL_IUPAC>  (50) 
rotigaptide

>  <JCHEM_VEBER_RULE>  (50) 
0

>  <MOLECULAR_WEIGHT>  (50) 
617.66

>  <PRODUCTS>  (50) 
nan

>  <SALTS>  (50) 
nan

>  <SECONDARY_ACCESSION_NUMBERS>  (50) 
nan

>  <SMILES>  (50) 
C[C@@H](NC(=O)CNC(=O)[C@H]1C[C@H](O)CN1C(=O)[C@H]1CCCN1C(=O)[C@@H](CC1=CC=C(O)C=C1)NC(C)=O)C(=O)NCC(N)=O

>  <SYNONYMS>  (50) 
nan

>  <ECFP_FP>  (50) 
<rdkit.DataStructs.cDataStructs.ExplicitBitVect object at 0xa26c7e850>

>  <pki_G>  (50) 
5.948901

>  <pki_D>  (50) 
6.055508

>  <pki_B>  (50) 
5.400081

>  <pki_A>  (50) 
6.018183

>  <SelB>  (50) 
0.54882

>  <SelA>  (50) 
-0.069282

>  <SelD>  (50) 
-0.106607

>  <AvgABSel>  (50) 
0.239769

>  <MACCS_FP>  (50) 
[0. 0. 0. 0. 0. 0. 0. 0. 0. 0. 0. 0. 0. 0. 0. 0. 0. 0. 0. 0. 0. 0. 0. 0.
 0. 0. 0. 0. 0. 0. 0. 0. 0. 0. 0. 0. 0. 0. 0. 0. 0. 0. 0. 0. 0. 0. 0. 0.
 0. 0. 0. 0. 0. 0. 1. 0. 0. 0. 0. 0. 0. 0. 0. 0. 0. 0. 0. 0. 0. 0. 0. 0.
 0. 0. 0. 1. 0. 0. 0. 1. 0. 0. 1. 1. 1. 1. 0. 0. 0. 0. 1. 1. 1. 0. 0. 1.
 1. 1. 0. 0. 1. 0. 0. 0. 1. 0. 0. 0. 1. 0. 1. 1. 0. 1. 0. 0. 0. 1. 1. 0.
 1. 1. 1. 0. 0. 0. 0. 1. 1. 1. 0. 1. 1. 0. 0. 0. 1. 1. 1. 1. 1. 0. 1. 1.
 0. 0. 1. 1. 1. 1. 1. 1. 1. 1. 1. 1. 1. 1. 1. 1. 1. 1. 1. 1. 1. 1. 0.]

>  <MACCS_pki_G>  (50) 
5.877311

>  <MACCS_pki_D>  (50) 
5.88228

>  <MACCS_pki_B>  (50) 
5.578016

>  <MACCS_pki_A>  (50) 
5.806143

>  <MACCS_SelB>  (50) 
0.299296

>  <MACCS_SelA>  (50) 
0.071168

>  <MACCS_SelD>  (50) 
-0.004969

>  <MACCSAvgABSel>  (50) 
0.185232

>  <Pharm2D_FP>  (50) 
[0. 0. 0. ... 0. 0. 0.]

>  <Pharm2D_pki_G>  (50) 
6.158768

>  <Pharm2D_pki_D>  (50) 
5.58065

>  <Pharm2D_pki_B>  (50) 
5.446631

>  <Pharm2D_pki_A>  (50) 
5.359698

>  <Pharm2D_SelB>  (50) 
0.712137

>  <Pharm2D_SelA>  (50) 
0.79907

>  <Pharm2D_SelD>  (50) 
0.578119

>  <Pharm2DAvgABSel>  (50) 
0.755604

>  <QED>  (50) 
0.12356

$$$$
DB01954
     RDKit          2D

 20 22  0  0  0  0  0  0  0  0999 V2000
   -1.4054   -2.3962    0.0000 C   0  0  0  0  0  0  0  0  0  0  0  0
    0.3254   -3.2532    0.0000 C   0  0  0  0  0  0  0  0  0  0  0  0
    1.1504   -3.2532    0.0000 C   0  0  0  0  0  0  0  0  0  0  0  0
    0.0705   -2.4686    0.0000 C   0  0  0  0  0  0  0  0  0  0  0  0
    1.4054   -2.4686    0.0000 C   0  0  0  0  0  0  0  0  0  0  0  0
   -1.4054    0.0787    0.0000 C   0  0  0  0  0  0  0  0  0  0  0  0
   -1.4054   -0.7462    0.0000 C   0  0  0  0  0  0  0  0  0  0  0  0
    0.0235    0.0787    0.0000 C   0  0  0  0  0  0  0  0  0  0  0  0
   -0.0235    1.8012    0.0000 C   0  0  0  0  0  0  0  0  0  0  0  0
   -1.3583    1.8012    0.0000 C   0  0  0  0  0  0  0  0  0  0  0  0
   -0.6909    0.4912    0.0000 C   0  0  0  0  0  0  0  0  0  0  0  0
   -0.6909    1.3162    0.0000 C   0  0  0  0  0  0  0  0  0  0  0  0
    0.7379   -1.9837    0.0000 C   0  0  0  0  0  0  0  0  0  0  0  0
   -0.6909   -1.1587    0.0000 C   0  0  0  0  0  0  0  0  0  0  0  0
    0.0235   -0.7462    0.0000 C   0  0  0  0  0  0  0  0  0  0  0  0
   -0.2784    2.5858    0.0000 C   0  0  0  0  0  0  0  0  0  0  0  0
   -1.1034    2.5858    0.0000 N   0  0  0  0  0  0  0  0  0  0  0  0
    0.2064    3.2532    0.0000 O   0  0  0  0  0  0  0  0  0  0  0  0
   -0.6909   -1.9837    0.0000 O   0  0  0  0  0  0  0  0  0  0  0  0
    0.7379   -1.1587    0.0000 O   0  0  0  0  0  0  0  0  0  0  0  0
  3  2  1  0
  4  2  1  0
  5  3  1  0
  7  6  2  0
 11  6  1  0
 11  8  2  0
 12  9  1  0
 12 10  1  0
 12 11  1  0
 13  4  1  0
 13  5  1  0
 14  7  1  0
 15  8  1  0
 15 14  2  0
 16  9  1  0
 17 10  1  0
 17 16  2  0
 18 16  1  0
 19  1  1  0
 19 14  1  0
 20 13  1  0
 20 15  1  0
M  END
>  <ALOGPS_LOGP>  (51) 
3.16

>  <ALOGPS_LOGS>  (51) 
-4.06

>  <ALOGPS_SOLUBILITY>  (51) 
2.39e-02 g/l

>  <DATABASE_NAME>  (51) 
drugbank

>  <DRUGBANK_ID>  (51) 
DB01954

>  <DRUG_GROUPS>  (51) 
investigational

>  <EXACT_MASS>  (51) 
275.15214354

>  <FORMULA>  (51) 
C16H21NO3

>  <GENERIC_NAME>  (51) 
Rolipram

>  <ID>  (51) 


>  <INCHI_IDENTIFIER>  (51) 
InChI=1S/C16H21NO3/c1-19-14-7-6-11(12-9-16(18)17-10-12)8-15(14)20-13-4-2-3-5-13/h6-8,12-13H,2-5,9-10H2,1H3,(H,17,18)

>  <INCHI_KEY>  (51) 
HJORMJIFDVBMOB-UHFFFAOYSA-N

>  <INTERNATIONAL_BRANDS>  (51) 
nan

>  <JCHEM_ACCEPTOR_COUNT>  (51) 
4

>  <JCHEM_ATOM_COUNT>  (51) 
41

>  <JCHEM_AVERAGE_POLARIZABILITY>  (51) 
30.0709506176893

>  <JCHEM_BIOAVAILABILITY>  (51) 
1

>  <JCHEM_DONOR_COUNT>  (51) 
1

>  <JCHEM_FORMAL_CHARGE>  (51) 
0

>  <JCHEM_GHOSE_FILTER>  (51) 
1

>  <JCHEM_IUPAC>  (51) 
3-[3-(cyclopentyloxy)-4-methoxyphenyl]-3,4-dihydro-2H-pyrrol-5-ol

>  <JCHEM_LOGP>  (51) 
2.0514844136217043

>  <JCHEM_MDDR_LIKE_RULE>  (51) 
0

>  <JCHEM_NUMBER_OF_RINGS>  (51) 
3

>  <JCHEM_PHYSIOLOGICAL_CHARGE>  (51) 
0

>  <JCHEM_PKA>  (51) 
nan

>  <JCHEM_PKA_STRONGEST_ACIDIC>  (51) 
3.828053424212124

>  <JCHEM_PKA_STRONGEST_BASIC>  (51) 
6.084459879851206

>  <JCHEM_POLAR_SURFACE_AREA>  (51) 
51.05000000000001

>  <JCHEM_REFRACTIVITY>  (51) 
76.6858

>  <JCHEM_ROTATABLE_BOND_COUNT>  (51) 
4

>  <JCHEM_RULE_OF_FIVE>  (51) 
1

>  <JCHEM_TRADITIONAL_IUPAC>  (51) 
rolipramum

>  <JCHEM_VEBER_RULE>  (51) 
0

>  <MOLECULAR_WEIGHT>  (51) 
275.348

>  <PRODUCTS>  (51) 
nan

>  <SALTS>  (51) 
nan

>  <SECONDARY_ACCESSION_NUMBERS>  (51) 
EXPT02804

>  <SMILES>  (51) 
COC1=C(OC2CCCC2)C=C(C=C1)C1CN=C(O)C1

>  <SYNONYMS>  (51) 
4-(3-(Cyclopentyloxy)-4-methoxyphenyl)-2-pyrrolidinone; Rolipram; Rolipramum

>  <ECFP_FP>  (51) 
<rdkit.DataStructs.cDataStructs.ExplicitBitVect object at 0xa266dfee0>

>  <pki_G>  (51) 
5.936441

>  <pki_D>  (51) 
5.717263

>  <pki_B>  (51) 
5.460137

>  <pki_A>  (51) 
5.272551

>  <SelB>  (51) 
0.476304

>  <SelA>  (51) 
0.663889

>  <SelD>  (51) 
0.219178

>  <AvgABSel>  (51) 
0.570097

>  <MACCS_FP>  (51) 
[0. 0. 0. 0. 0. 0. 0. 0. 0. 0. 0. 0. 0. 0. 0. 0. 0. 0. 0. 0. 0. 0. 0. 0.
 0. 0. 0. 0. 0. 0. 0. 0. 0. 0. 0. 0. 0. 0. 0. 0. 0. 0. 0. 0. 0. 0. 0. 0.
 0. 0. 0. 0. 0. 0. 0. 0. 0. 0. 0. 0. 0. 0. 1. 0. 0. 0. 0. 0. 0. 0. 0. 0.
 1. 0. 0. 0. 0. 0. 1. 0. 0. 0. 0. 1. 0. 0. 0. 0. 0. 0. 1. 1. 1. 1. 0. 0.
 1. 0. 0. 0. 1. 0. 0. 0. 1. 0. 0. 0. 0. 0. 1. 1. 0. 1. 0. 0. 0. 1. 1. 1.
 0. 1. 0. 0. 0. 0. 1. 1. 0. 1. 0. 0. 1. 0. 0. 0. 0. 1. 0. 1. 0. 0. 0. 1.
 1. 0. 1. 1. 0. 0. 1. 0. 1. 1. 0. 0. 1. 1. 1. 1. 1. 1. 1. 1. 1. 1. 0.]

>  <MACCS_pki_G>  (51) 
5.783229

>  <MACCS_pki_D>  (51) 
5.809695

>  <MACCS_pki_B>  (51) 
5.687159

>  <MACCS_pki_A>  (51) 
5.609976

>  <MACCS_SelB>  (51) 
0.09607

>  <MACCS_SelA>  (51) 
0.173252

>  <MACCS_SelD>  (51) 
-0.026466

>  <MACCSAvgABSel>  (51) 
0.134661

>  <Pharm2D_FP>  (51) 
[0. 0. 0. ... 0. 0. 0.]

>  <Pharm2D_pki_G>  (51) 
6.052495

>  <Pharm2D_pki_D>  (51) 
5.546316

>  <Pharm2D_pki_B>  (51) 
5.345272

>  <Pharm2D_pki_A>  (51) 
5.07036

>  <Pharm2D_SelB>  (51) 
0.707223

>  <Pharm2D_SelA>  (51) 
0.982134

>  <Pharm2D_SelD>  (51) 
0.506179

>  <Pharm2DAvgABSel>  (51) 
0.844679

>  <QED>  (51) 
0.915127

$$$$
DB13274
     RDKit          2D

 32 34  0  0  1  0  0  0  0  0999 V2000
    4.4710   -0.6055    0.0000 C   0  0  0  0  0  0  0  0  0  0  0  0
    5.0013   -1.2375    0.0000 C   0  0  0  0  0  0  0  0  0  0  0  0
    5.7158   -1.6500    0.0000 C   0  0  0  0  0  0  0  0  0  0  0  0
    5.7158   -2.4750    0.0000 O   0  0  0  0  0  0  0  0  0  0  0  0
    5.0013   -2.8875    0.0000 C   0  0  0  0  0  0  0  0  0  0  0  0
    4.2868   -2.4750    0.0000 C   0  0  0  0  0  0  0  0  0  0  0  0
    4.2868   -1.6500    0.0000 C   0  0  0  0  0  0  0  0  0  0  0  0
    3.5724   -1.2375    0.0000 N   0  0  0  0  0  0  0  0  0  0  0  0
    3.5724   -0.4125    0.0000 C   0  0  0  0  0  0  0  0  0  0  0  0
    3.5724   -2.8875    0.0000 O   0  0  0  0  0  0  0  0  0  0  0  0
    5.0013   -3.7125    0.0000 O   0  0  0  0  0  0  0  0  0  0  0  0
    5.7158   -4.1250    0.0000 C   0  0  0  0  0  0  0  0  0  0  0  0
    6.4302   -3.7125    0.0000 C   0  0  0  0  0  0  0  0  0  0  0  0
    7.1447   -4.1250    0.0000 C   0  0  0  0  0  0  0  0  0  0  0  0
    7.1447   -4.9500    0.0000 C   0  0  0  0  0  0  0  0  0  0  0  0
    6.4302   -5.3625    0.0000 C   0  0  0  0  0  0  0  0  0  0  0  0
    5.7158   -4.9500    0.0000 C   0  0  0  0  0  0  0  0  0  0  0  0
    5.0013   -5.3625    0.0000 O   0  0  0  0  0  0  0  0  0  0  0  0
    6.4302   -6.1875    0.0000 O   0  0  0  0  0  0  0  0  0  0  0  0
    5.7158   -6.6000    0.0000 C   0  0  0  0  0  0  0  0  0  0  0  0
    5.7158   -7.4250    0.0000 C   0  0  0  0  0  0  0  0  0  0  0  0
    5.0013   -7.8375    0.0000 C   0  0  0  0  0  0  0  0  0  0  0  0
    4.2868   -7.4250    0.0000 C   0  0  0  0  0  0  0  0  0  0  0  0
    4.2868   -6.6000    0.0000 C   0  0  0  0  0  0  0  0  0  0  0  0
    5.0013   -6.1875    0.0000 O   0  0  0  0  0  0  0  0  0  0  0  0
    3.5724   -6.1875    0.0000 C   0  0  0  0  0  0  0  0  0  0  0  0
    3.5724   -5.3625    0.0000 N   0  0  0  0  0  0  0  0  0  0  0  0
    4.2868   -4.9500    0.0000 C   0  0  0  0  0  0  0  0  0  0  0  0
    6.4302   -7.8375    0.0000 N   0  0  0  0  0  0  0  0  0  0  0  0
    7.8592   -5.3625    0.0000 N   0  0  0  0  0  0  0  0  0  0  0  0
    6.4302   -2.8875    0.0000 N   0  0  0  0  0  0  0  0  0  0  0  0
    5.5316   -0.6055    0.0000 O   0  0  0  0  0  0  0  0  0  0  0  0
  2  1  1  6
  2  3  1  0
  3  4  1  0
  4  5  1  0
  5  6  1  0
  6  7  1  0
  2  7  1  0
  7  8  1  1
  8  9  1  0
  6 10  1  6
  5 11  1  6
 12 11  1  1
 12 13  1  0
 13 14  1  0
 14 15  1  0
 15 16  1  0
 16 17  1  0
 12 17  1  0
 17 18  1  6
 16 19  1  1
 20 19  1  6
 20 21  1  0
 21 22  1  0
 22 23  1  0
 23 24  1  0
 24 25  1  0
 20 25  1  0
 24 26  1  1
 26 27  1  0
 27 28  1  0
 21 29  1  6
 15 30  1  6
 13 31  1  6
  2 32  1  0
M  END
>  <ALOGPS_LOGP>  (52) 
-1.84

>  <ALOGPS_LOGS>  (52) 
-1.42

>  <ALOGPS_SOLUBILITY>  (52) 
1.75e+01 g/l

>  <DATABASE_NAME>  (52) 
drugbank

>  <DRUGBANK_ID>  (52) 
DB13274

>  <DRUG_GROUPS>  (52) 
approved

>  <EXACT_MASS>  (52) 
463.30059868

>  <FORMULA>  (52) 
C20H41N5O7

>  <GENERIC_NAME>  (52) 
Micronomicin

>  <ID>  (52) 


>  <INCHI_IDENTIFIER>  (52) 
InChI=1S/C20H41N5O7/c1-20(28)8-29-19(14(27)17(20)25-3)32-16-12(23)6-11(22)15(13(16)26)31-18-10(21)5-4-9(30-18)7-24-2/h9-19,24-28H,4-8,21-23H2,1-3H3/t9-,10+,11-,12+,13-,14+,15+,16-,17+,18+,19+,20-/m0/s1

>  <INCHI_KEY>  (52) 
DNYGXMICFMACRA-XHEDQWPISA-N

>  <INTERNATIONAL_BRANDS>  (52) 
nan

>  <JCHEM_ACCEPTOR_COUNT>  (52) 
12

>  <JCHEM_ATOM_COUNT>  (52) 
73

>  <JCHEM_AVERAGE_POLARIZABILITY>  (52) 
49.66129412670688

>  <JCHEM_BIOAVAILABILITY>  (52) 
0

>  <JCHEM_DONOR_COUNT>  (52) 
8

>  <JCHEM_FORMAL_CHARGE>  (52) 
0

>  <JCHEM_GHOSE_FILTER>  (52) 
0

>  <JCHEM_IUPAC>  (52) 
(2R,3R,4R,5R)-2-{[(1S,2S,3R,4S,6R)-4,6-diamino-3-{[(2R,3R,6S)-3-amino-6-[(methylamino)methyl]oxan-2-yl]oxy}-2-hydroxycyclohexyl]oxy}-5-methyl-4-(methylamino)oxane-3,5-diol

>  <JCHEM_LOGP>  (52) 
-3.5537305539999995

>  <JCHEM_MDDR_LIKE_RULE>  (52) 
1

>  <JCHEM_NUMBER_OF_RINGS>  (52) 
3

>  <JCHEM_PHYSIOLOGICAL_CHARGE>  (52) 
5

>  <JCHEM_PKA>  (52) 
13.159314888955901

>  <JCHEM_PKA_STRONGEST_ACIDIC>  (52) 
12.548824540405306

>  <JCHEM_PKA_STRONGEST_BASIC>  (52) 
10.062735189141732

>  <JCHEM_POLAR_SURFACE_AREA>  (52) 
199.73000000000002

>  <JCHEM_REFRACTIVITY>  (52) 
113.60189999999997

>  <JCHEM_ROTATABLE_BOND_COUNT>  (52) 
7

>  <JCHEM_RULE_OF_FIVE>  (52) 
0

>  <JCHEM_TRADITIONAL_IUPAC>  (52) 
(2R,3R,4R,5R)-2-{[(1S,2S,3R,4S,6R)-4,6-diamino-3-{[(2R,3R,6S)-3-amino-6-[(methylamino)methyl]oxan-2-yl]oxy}-2-hydroxycyclohexyl]oxy}-5-methyl-4-(methylamino)oxane-3,5-diol

>  <JCHEM_VEBER_RULE>  (52) 
0

>  <MOLECULAR_WEIGHT>  (52) 
463.576

>  <PRODUCTS>  (52) 
nan

>  <SALTS>  (52) 
nan

>  <SECONDARY_ACCESSION_NUMBERS>  (52) 
nan

>  <SMILES>  (52) 
CNC[C@@H]1CC[C@@H](N)[C@@H](O[C@@H]2[C@@H](N)C[C@@H](N)[C@H](O[C@H]3OC[C@](C)(O)[C@H](NC)[C@H]3O)[C@H]2O)O1

>  <SYNONYMS>  (52) 
nan

>  <ECFP_FP>  (52) 
<rdkit.DataStructs.cDataStructs.ExplicitBitVect object at 0xa26c95800>

>  <pki_G>  (52) 
5.932436

>  <pki_D>  (52) 
6.000252

>  <pki_B>  (52) 
5.49014

>  <pki_A>  (52) 
5.467031

>  <SelB>  (52) 
0.442295

>  <SelA>  (52) 
0.465405

>  <SelD>  (52) 
-0.067816

>  <AvgABSel>  (52) 
0.45385

>  <MACCS_FP>  (52) 
[0. 0. 0. 0. 0. 0. 0. 0. 0. 0. 0. 0. 0. 0. 0. 0. 0. 0. 0. 0. 0. 0. 0. 0.
 0. 0. 0. 0. 0. 0. 0. 0. 0. 0. 0. 0. 0. 0. 0. 0. 0. 0. 0. 0. 0. 0. 0. 0.
 0. 0. 0. 0. 0. 1. 1. 0. 0. 1. 0. 0. 0. 0. 0. 0. 0. 0. 1. 0. 0. 0. 0. 0.
 1. 0. 0. 0. 0. 0. 0. 0. 1. 0. 1. 0. 1. 0. 1. 0. 0. 1. 1. 1. 0. 1. 0. 1.
 0. 1. 1. 0. 1. 0. 0. 0. 1. 0. 0. 0. 1. 1. 0. 1. 1. 0. 0. 1. 0. 0. 1. 0.
 1. 0. 0. 1. 0. 0. 1. 1. 0. 1. 0. 1. 1. 1. 0. 0. 0. 1. 1. 1. 1. 1. 1. 1.
 0. 1. 1. 1. 0. 1. 1. 1. 1. 1. 0. 1. 1. 1. 1. 1. 1. 1. 0. 1. 1. 1. 0.]

>  <MACCS_pki_G>  (52) 
6.096363

>  <MACCS_pki_D>  (52) 
5.778229

>  <MACCS_pki_B>  (52) 
6.113452

>  <MACCS_pki_A>  (52) 
6.11225

>  <MACCS_SelB>  (52) 
-0.017089

>  <MACCS_SelA>  (52) 
-0.015888

>  <MACCS_SelD>  (52) 
0.318133

>  <MACCSAvgABSel>  (52) 
-0.016489

>  <Pharm2D_FP>  (52) 
[0. 0. 0. ... 0. 0. 0.]

>  <Pharm2D_pki_G>  (52) 
6.586306

>  <Pharm2D_pki_D>  (52) 
5.906264

>  <Pharm2D_pki_B>  (52) 
5.694556

>  <Pharm2D_pki_A>  (52) 
5.128721

>  <Pharm2D_SelB>  (52) 
0.89175

>  <Pharm2D_SelA>  (52) 
1.457586

>  <Pharm2D_SelD>  (52) 
0.680043

>  <Pharm2DAvgABSel>  (52) 
1.174668

>  <QED>  (52) 
0.183855

$$$$
DB04729
     RDKit          2D

 31 33  0  0  0  0  0  0  0  0999 V2000
    0.7326    1.8563    0.0000 C   0  0  0  0  0  0  0  0  0  0  0  0
    0.7326    1.0313    0.0000 C   0  0  0  0  0  0  0  0  0  0  0  0
    0.0180    2.2689    0.0000 C   0  0  0  0  0  0  0  0  0  0  0  0
    0.0180    0.6187    0.0000 C   0  0  0  0  0  0  0  0  0  0  0  0
   -0.6965    1.8563    0.0000 C   0  0  0  0  0  0  0  0  0  0  0  0
   -0.6965    1.0313    0.0000 C   0  0  0  0  0  0  0  0  0  0  0  0
    1.4471    2.2689    0.0000 N   0  0  0  0  0  0  0  0  0  0  0  0
   -1.4109    2.2689    0.0000 N   0  0  0  0  0  0  0  0  0  0  0  0
   -1.4109    0.6187    0.0000 O   0  0  0  0  0  0  0  0  0  0  0  0
    0.0179   -0.2062    0.0000 O   0  0  0  0  0  0  0  0  0  0  0  0
    1.4471    0.6187    0.0000 O   0  0  0  0  0  0  0  0  0  0  0  0
   -2.1255    0.2062    0.0000 C   0  0  0  0  0  0  0  0  0  0  0  0
   -2.1255   -0.6187    0.0000 C   0  0  0  0  0  0  0  0  0  0  0  0
   -2.8400    0.6187    0.0000 O   0  0  0  0  0  0  0  0  0  0  0  0
   -2.8400   -1.0313    0.0000 C   0  0  0  0  0  0  0  0  0  0  0  0
   -3.5546    0.2062    0.0000 C   0  0  0  0  0  0  0  0  0  0  0  0
   -3.5546   -0.6187    0.0000 C   0  0  0  0  0  0  0  0  0  0  0  0
   -1.4109   -1.0313    0.0000 N   0  0  0  0  0  0  0  0  0  0  0  0
    2.1617    0.2062    0.0000 C   0  0  0  0  0  0  0  0  0  0  0  0
    2.1617   -0.6187    0.0000 C   0  0  0  0  0  0  0  0  0  0  0  0
    2.8762    0.6187    0.0000 O   0  0  0  0  0  0  0  0  0  0  0  0
    2.8762   -1.0313    0.0000 C   0  0  0  0  0  0  0  0  0  0  0  0
    3.5907    0.2062    0.0000 C   0  0  0  0  0  0  0  0  0  0  0  0
    3.5907   -0.6187    0.0000 C   0  0  0  0  0  0  0  0  0  0  0  0
    1.4471   -1.0313    0.0000 O   0  0  0  0  0  0  0  0  0  0  0  0
    2.8762   -1.8563    0.0000 N   0  0  0  0  0  0  0  0  0  0  0  0
    2.1617   -2.2689    0.0000 C   0  0  0  0  0  0  0  0  0  0  0  0
    4.2690   -0.3319    0.0000 C   0  0  0  0  0  0  0  0  0  0  0  0
    3.7583   -1.3691    0.0000 O   0  0  0  0  0  0  0  0  0  0  0  0
   -4.2690    0.6187    0.0000 C   0  0  0  0  0  0  0  0  0  0  0  0
   -4.2690    1.4438    0.0000 N   0  0  0  0  0  0  0  0  0  0  0  0
  2  1  1  0
  3  1  1  0
  4  2  1  0
  5  3  1  0
  6  4  1  0
  6  5  1  0
  1  7  1  1
  5  8  1  1
  6  9  1  6
  4 10  1  1
  2 11  1  6
 12 13  1  0
 12 14  1  0
 13 15  1  0
 14 16  1  0
 15 17  1  0
 16 17  1  0
 12  9  1  6
 13 18  1  6
 19 20  1  0
 19 21  1  0
 20 22  1  0
 21 23  1  0
 22 24  1  0
 23 24  1  0
 19 11  1  1
 20 25  1  1
 22 26  1  6
 27 26  1  0
 24 28  1  1
 24 29  1  0
 16 30  1  1
 31 30  1  0
M  END
>  <ALOGPS_LOGP>  (53) 
-2.24

>  <ALOGPS_LOGS>  (53) 
-1.34

>  <ALOGPS_SOLUBILITY>  (53) 
2.05e+01 g/l

>  <DATABASE_NAME>  (53) 
drugbank

>  <DRUGBANK_ID>  (53) 
DB04729

>  <DRUG_GROUPS>  (53) 
experimental

>  <EXACT_MASS>  (53) 
449.284948627

>  <FORMULA>  (53) 
C19H39N5O7

>  <GENERIC_NAME>  (53) 
Gentamicin C1a

>  <ID>  (53) 


>  <INCHI_IDENTIFIER>  (53) 
InChI=1S/C19H39N5O7/c1-19(27)7-28-18(13(26)16(19)24-2)31-15-11(23)5-10(22)14(12(15)25)30-17-9(21)4-3-8(6-20)29-17/h8-18,24-27H,3-7,20-23H2,1-2H3/t8-,9+,10-,11+,12-,13+,14+,15-,16+,17+,18+,19-/m0/s1

>  <INCHI_KEY>  (53) 
VEGXETMJINRLTH-BOZYPMBZSA-N

>  <INTERNATIONAL_BRANDS>  (53) 
nan

>  <JCHEM_ACCEPTOR_COUNT>  (53) 
12

>  <JCHEM_ATOM_COUNT>  (53) 
70

>  <JCHEM_AVERAGE_POLARIZABILITY>  (53) 
47.351159350515935

>  <JCHEM_BIOAVAILABILITY>  (53) 
0

>  <JCHEM_DONOR_COUNT>  (53) 
8

>  <JCHEM_FORMAL_CHARGE>  (53) 
0

>  <JCHEM_GHOSE_FILTER>  (53) 
0

>  <JCHEM_IUPAC>  (53) 
(2R,3R,4R,5R)-2-{[(1S,2S,3R,4S,6R)-4,6-diamino-3-{[(2R,3R,6S)-3-amino-6-(aminomethyl)oxan-2-yl]oxy}-2-hydroxycyclohexyl]oxy}-5-methyl-4-(methylamino)oxane-3,5-diol

>  <JCHEM_LOGP>  (53) 
-3.9863109476666665

>  <JCHEM_MDDR_LIKE_RULE>  (53) 
1

>  <JCHEM_NUMBER_OF_RINGS>  (53) 
3

>  <JCHEM_PHYSIOLOGICAL_CHARGE>  (53) 
5

>  <JCHEM_PKA>  (53) 
13.159228031928965

>  <JCHEM_PKA_STRONGEST_ACIDIC>  (53) 
12.548486195889797

>  <JCHEM_PKA_STRONGEST_BASIC>  (53) 
9.898564301835346

>  <JCHEM_POLAR_SURFACE_AREA>  (53) 
213.72

>  <JCHEM_REFRACTIVITY>  (53) 
108.8273

>  <JCHEM_ROTATABLE_BOND_COUNT>  (53) 
6

>  <JCHEM_RULE_OF_FIVE>  (53) 
0

>  <JCHEM_TRADITIONAL_IUPAC>  (53) 
gentamicin C1A

>  <JCHEM_VEBER_RULE>  (53) 
0

>  <MOLECULAR_WEIGHT>  (53) 
449.5423

>  <PRODUCTS>  (53) 
nan

>  <SALTS>  (53) 
Gentamicin c1a sulfate

>  <SECONDARY_ACCESSION_NUMBERS>  (53) 
nan

>  <SMILES>  (53) 
CN[C@@H]1[C@@H](O)[C@@H](O[C@H]2[C@H](N)C[C@H](N)[C@@H](O[C@H]3O[C@H](CN)CC[C@H]3N)[C@@H]2O)OC[C@]1(C)O

>  <SYNONYMS>  (53) 
Gentamycin C12

>  <ECFP_FP>  (53) 
<rdkit.DataStructs.cDataStructs.ExplicitBitVect object at 0xa269a55d0>

>  <pki_G>  (53) 
5.932436

>  <pki_D>  (53) 
6.014801

>  <pki_B>  (53) 
5.49014

>  <pki_A>  (53) 
5.467031

>  <SelB>  (53) 
0.442295

>  <SelA>  (53) 
0.465405

>  <SelD>  (53) 
-0.082365

>  <AvgABSel>  (53) 
0.45385

>  <MACCS_FP>  (53) 
[0. 0. 0. 0. 0. 0. 0. 0. 0. 0. 0. 0. 0. 0. 0. 0. 0. 0. 0. 0. 0. 0. 0. 0.
 0. 0. 0. 0. 0. 0. 0. 0. 0. 0. 0. 0. 0. 0. 0. 0. 0. 0. 0. 0. 0. 0. 0. 0.
 0. 0. 0. 0. 0. 1. 1. 0. 0. 1. 0. 0. 0. 0. 0. 0. 0. 0. 1. 0. 0. 0. 0. 0.
 1. 0. 0. 0. 0. 0. 0. 0. 1. 0. 1. 0. 1. 0. 0. 0. 0. 1. 1. 1. 0. 1. 0. 1.
 0. 1. 1. 0. 1. 0. 0. 0. 1. 0. 0. 0. 1. 1. 0. 1. 1. 0. 0. 1. 0. 0. 1. 0.
 1. 0. 0. 1. 0. 0. 1. 1. 0. 1. 0. 1. 1. 1. 0. 0. 0. 1. 1. 1. 1. 0. 1. 1.
 0. 1. 1. 1. 0. 1. 1. 1. 1. 1. 0. 1. 1. 1. 1. 1. 1. 1. 0. 1. 1. 1. 0.]

>  <MACCS_pki_G>  (53) 
6.137696

>  <MACCS_pki_D>  (53) 
5.869896

>  <MACCS_pki_B>  (53) 
6.113452

>  <MACCS_pki_A>  (53) 
6.041834

>  <MACCS_SelB>  (53) 
0.024244

>  <MACCS_SelA>  (53) 
0.095862

>  <MACCS_SelD>  (53) 
0.2678

>  <MACCSAvgABSel>  (53) 
0.060053

>  <Pharm2D_FP>  (53) 
[0. 0. 0. ... 0. 0. 0.]

>  <Pharm2D_pki_G>  (53) 
6.586306

>  <Pharm2D_pki_D>  (53) 
5.906264

>  <Pharm2D_pki_B>  (53) 
5.694556

>  <Pharm2D_pki_A>  (53) 
5.128721

>  <Pharm2D_SelB>  (53) 
0.89175

>  <Pharm2D_SelA>  (53) 
1.457586

>  <Pharm2D_SelD>  (53) 
0.680043

>  <Pharm2DAvgABSel>  (53) 
1.174668

>  <QED>  (53) 
0.194844

$$$$
DB12964
     RDKit          2D

 22 25  0  0  0  0  0  0  0  0999 V2000
    2.5399    2.5934    0.0000 C   0  0  0  0  0  0  0  0  0  0  0  0
    2.7948    1.8088    0.0000 C   0  0  0  0  0  0  0  0  0  0  0  0
    2.2428    1.1957    0.0000 C   0  0  0  0  0  0  0  0  0  0  0  0
    1.4358    1.3672    0.0000 C   0  0  0  0  0  0  0  0  0  0  0  0
    1.1809    2.1518    0.0000 C   0  0  0  0  0  0  0  0  0  0  0  0
    1.7329    2.7649    0.0000 C   0  0  0  0  0  0  0  0  0  0  0  0
    0.8838    0.7541    0.0000 C   0  0  0  0  0  0  0  0  0  0  0  0
    1.1387   -0.0305    0.0000 N   0  0  0  0  0  0  0  0  0  0  0  0
    1.9233   -0.2854    0.0000 C   0  0  0  0  0  0  0  0  0  0  0  0
    2.6378    0.1271    0.0000 C   0  0  0  0  0  0  0  0  0  0  0  0
    3.3523   -0.2854    0.0000 C   0  0  0  0  0  0  0  0  0  0  0  0
    3.3523   -1.1104    0.0000 C   0  0  0  0  0  0  0  0  0  0  0  0
    2.6378   -1.5229    0.0000 C   0  0  0  0  0  0  0  0  0  0  0  0
    1.9233   -1.1104    0.0000 C   0  0  0  0  0  0  0  0  0  0  0  0
    1.1387   -1.3654    0.0000 N   0  0  0  0  0  0  0  0  0  0  0  0
    0.6538   -0.6979    0.0000 C   0  0  0  0  0  0  0  0  0  0  0  0
   -0.1712   -0.6979    0.0000 N   0  0  0  0  0  0  0  0  0  0  0  0
   -0.5837   -1.4124    0.0000 C   0  0  0  0  0  0  0  0  0  0  0  0
   -1.4087   -1.4124    0.0000 C   0  0  0  0  0  0  0  0  0  0  0  0
   -1.8212   -0.6979    0.0000 N   0  0  0  0  0  0  0  0  0  0  0  0
   -1.4087    0.0165    0.0000 C   0  0  0  0  0  0  0  0  0  0  0  0
   -0.5837    0.0165    0.0000 C   0  0  0  0  0  0  0  0  0  0  0  0
  1  2  2  0
  2  3  1  0
  3  4  2  0
  4  5  1  0
  5  6  2  0
  1  6  1  0
  4  7  1  0
  7  8  1  0
  8  9  1  0
  9 10  2  0
 10 11  1  0
 11 12  2  0
 12 13  1  0
 13 14  2  0
  9 14  1  0
 14 15  1  0
 15 16  2  0
  8 16  1  0
 16 17  1  0
 17 18  1  0
 18 19  1  0
 19 20  1  0
 20 21  1  0
 21 22  1  0
 17 22  1  0
M  END
>  <ALOGPS_LOGP>  (54) 
3.01

>  <ALOGPS_LOGS>  (54) 
-2.83

>  <ALOGPS_SOLUBILITY>  (54) 
4.35e-01 g/l

>  <DATABASE_NAME>  (54) 
drugbank

>  <DRUGBANK_ID>  (54) 
DB12964

>  <DRUG_GROUPS>  (54) 
investigational

>  <EXACT_MASS>  (54) 
292.16879666

>  <FORMULA>  (54) 
C18H20N4

>  <GENERIC_NAME>  (54) 
Lerisetron

>  <ID>  (54) 


>  <INCHI_IDENTIFIER>  (54) 
InChI=1S/C18H20N4/c1-2-6-15(7-3-1)14-22-17-9-5-4-8-16(17)20-18(22)21-12-10-19-11-13-21/h1-9,19H,10-14H2

>  <INCHI_KEY>  (54) 
PWWDCRQZITYKDV-UHFFFAOYSA-N

>  <INTERNATIONAL_BRANDS>  (54) 
nan

>  <JCHEM_ACCEPTOR_COUNT>  (54) 
3

>  <JCHEM_ATOM_COUNT>  (54) 
42

>  <JCHEM_AVERAGE_POLARIZABILITY>  (54) 
32.968256303762686

>  <JCHEM_BIOAVAILABILITY>  (54) 
1

>  <JCHEM_DONOR_COUNT>  (54) 
1

>  <JCHEM_FORMAL_CHARGE>  (54) 
0

>  <JCHEM_GHOSE_FILTER>  (54) 
1

>  <JCHEM_IUPAC>  (54) 
1-benzyl-2-(piperazin-1-yl)-1H-1,3-benzodiazole

>  <JCHEM_LOGP>  (54) 
3.4640186873333336

>  <JCHEM_MDDR_LIKE_RULE>  (54) 
0

>  <JCHEM_NUMBER_OF_RINGS>  (54) 
4

>  <JCHEM_PHYSIOLOGICAL_CHARGE>  (54) 
1

>  <JCHEM_PKA>  (54) 
nan

>  <JCHEM_PKA_STRONGEST_ACIDIC>  (54) 
nan

>  <JCHEM_PKA_STRONGEST_BASIC>  (54) 
8.836258554775767

>  <JCHEM_POLAR_SURFACE_AREA>  (54) 
33.09

>  <JCHEM_REFRACTIVITY>  (54) 
89.13509999999998

>  <JCHEM_ROTATABLE_BOND_COUNT>  (54) 
3

>  <JCHEM_RULE_OF_FIVE>  (54) 
1

>  <JCHEM_TRADITIONAL_IUPAC>  (54) 
lerisetron

>  <JCHEM_VEBER_RULE>  (54) 
1

>  <MOLECULAR_WEIGHT>  (54) 
292.386

>  <PRODUCTS>  (54) 
nan

>  <SALTS>  (54) 
nan

>  <SECONDARY_ACCESSION_NUMBERS>  (54) 
nan

>  <SMILES>  (54) 
C(N1C2=CC=CC=C2N=C1N1CCNCC1)C1=CC=CC=C1

>  <SYNONYMS>  (54) 
nan

>  <ECFP_FP>  (54) 
<rdkit.DataStructs.cDataStructs.ExplicitBitVect object at 0xa26c70490>

>  <pki_G>  (54) 
5.930247

>  <pki_D>  (54) 
5.827412

>  <pki_B>  (54) 
5.673811

>  <pki_A>  (54) 
5.910377

>  <SelB>  (54) 
0.256437

>  <SelA>  (54) 
0.01987

>  <SelD>  (54) 
0.102835

>  <AvgABSel>  (54) 
0.138153

>  <MACCS_FP>  (54) 
[0. 0. 0. 0. 0. 0. 0. 0. 0. 0. 0. 0. 0. 0. 0. 0. 0. 0. 0. 0. 0. 0. 0. 0.
 0. 1. 0. 0. 0. 0. 0. 0. 0. 0. 0. 0. 0. 0. 0. 0. 0. 0. 0. 0. 0. 0. 0. 0.
 0. 0. 0. 0. 0. 0. 0. 0. 0. 0. 0. 0. 0. 0. 1. 0. 0. 1. 0. 0. 0. 0. 0. 0.
 0. 0. 0. 1. 0. 1. 0. 1. 0. 0. 1. 1. 0. 1. 1. 0. 0. 0. 0. 1. 0. 0. 0. 0.
 1. 0. 1. 0. 1. 1. 0. 0. 1. 1. 1. 0. 0. 0. 0. 1. 0. 0. 0. 0. 0. 0. 1. 0.
 1. 1. 1. 0. 0. 1. 0. 0. 1. 1. 0. 0. 0. 1. 0. 1. 0. 1. 1. 0. 0. 0. 1. 0.
 1. 1. 0. 1. 1. 0. 1. 1. 0. 1. 0. 1. 1. 0. 1. 0. 0. 1. 1. 1. 0. 1. 0.]

>  <MACCS_pki_G>  (54) 
6.507412

>  <MACCS_pki_D>  (54) 
6.001691

>  <MACCS_pki_B>  (54) 
5.885908

>  <MACCS_pki_A>  (54) 
5.538192

>  <MACCS_SelB>  (54) 
0.621504

>  <MACCS_SelA>  (54) 
0.96922

>  <MACCS_SelD>  (54) 
0.505721

>  <MACCSAvgABSel>  (54) 
0.795362

>  <Pharm2D_FP>  (54) 
[0. 0. 0. ... 0. 0. 0.]

>  <Pharm2D_pki_G>  (54) 
5.803417

>  <Pharm2D_pki_D>  (54) 
5.577077

>  <Pharm2D_pki_B>  (54) 
5.341597

>  <Pharm2D_pki_A>  (54) 
5.260939

>  <Pharm2D_SelB>  (54) 
0.46182

>  <Pharm2D_SelA>  (54) 
0.542478

>  <Pharm2D_SelD>  (54) 
0.22634

>  <Pharm2DAvgABSel>  (54) 
0.502149

>  <QED>  (54) 
0.804949

$$$$
DB15282
     RDKit          2D

 31 36  0  0  1  0  0  0  0  0999 V2000
    5.8330   -3.5687    0.0000 C   0  0  0  0  0  0  0  0  0  0  0  0
    6.0000   -2.7607    0.0000 C   0  0  0  0  0  0  0  0  0  0  0  0
    6.4887   -3.4254    0.0000 C   0  0  0  0  0  0  0  0  0  0  0  0
    7.3087   -3.3346    0.0000 C   0  0  0  0  0  0  0  0  0  0  0  0
    7.6400   -2.5790    0.0000 C   0  0  0  0  0  0  0  0  0  0  0  0
    7.1513   -1.9143    0.0000 C   0  0  0  0  0  0  0  0  0  0  0  0
    7.4826   -1.1588    0.0000 C   0  0  0  0  0  0  0  0  0  0  0  0
    8.3026   -1.0679    0.0000 C   0  0  0  0  0  0  0  0  0  0  0  0
    8.7913   -1.7326    0.0000 C   0  0  0  0  0  0  0  0  0  0  0  0
    9.6112   -1.6417    0.0000 C   0  0  0  0  0  0  0  0  0  0  0  0
   10.0999   -2.3064    0.0000 C   0  0  0  0  0  0  0  0  0  0  0  0
   10.9199   -2.2156    0.0000 O   0  0  0  0  0  0  0  0  0  0  0  0
    9.7686   -3.0620    0.0000 C   0  0  0  0  0  0  0  0  0  0  0  0
    8.9486   -3.1529    0.0000 C   0  0  0  0  0  0  0  0  0  0  0  0
    8.4600   -2.4882    0.0000 C   0  0  0  0  0  0  0  0  0  0  0  0
    6.3313   -2.0052    0.0000 C   0  0  0  0  0  0  0  0  0  0  0  0
    5.7151   -1.4566    0.0000 C   0  0  0  0  0  0  0  0  0  0  0  0
    5.0030   -1.8731    0.0000 C   0  0  0  0  0  0  0  0  0  0  0  0
    4.1820   -1.7915    0.0000 O   0  0  0  0  0  0  0  0  0  0  0  0
    3.8507   -2.5471    0.0000 C   0  0  0  0  0  0  0  0  0  0  0  0
    4.4669   -3.0956    0.0000 O   0  0  0  0  0  0  0  0  0  0  0  0
    5.1791   -2.6791    0.0000 C   0  0  0  0  0  0  0  0  0  0  0  0
    5.3551   -3.4851    0.0000 C   0  0  0  0  0  0  0  0  0  0  0  0
    6.0253   -3.9663    0.0000 O   0  0  0  0  0  0  0  0  0  0  0  0
    4.7452   -4.0406    0.0000 C   0  0  0  0  0  0  0  0  0  0  0  0
    3.9591   -3.7901    0.0000 F   0  0  0  0  0  0  0  0  0  0  0  0
    3.0447   -2.7231    0.0000 C   0  0  0  0  0  0  0  0  0  0  0  0
    2.4285   -2.1746    0.0000 C   0  0  0  0  0  0  0  0  0  0  0  0
    1.7164   -2.5911    0.0000 C   0  0  0  0  0  0  0  0  0  0  0  0
    1.8925   -3.3971    0.0000 C   0  0  0  0  0  0  0  0  0  0  0  0
    2.7134   -3.4787    0.0000 O   0  0  0  0  0  0  0  0  0  0  0  0
  2  1  1  1
  2  3  1  0
  3  4  1  0
  5  4  1  1
  6  5  1  0
  6  7  1  6
  7  8  1  0
  8  9  1  0
  9 10  2  0
 10 11  1  0
 11 12  2  0
 11 13  1  0
 13 14  1  0
 15 14  1  6
  5 15  1  0
 15  9  1  0
 16  6  1  0
  2 16  1  0
 16 17  1  1
 18 17  1  6
 18 19  1  0
 20 19  1  0
 20 21  1  0
 22 21  1  0
  2 22  1  0
 22 18  1  0
 22 23  1  1
 23 24  2  0
 23 25  1  0
 25 26  1  0
 20 27  1  6
 27 28  2  0
 28 29  1  0
 29 30  2  0
 30 31  1  0
 27 31  1  0
M  ISO  1  26  18
M  END
>  <ALOGPS_LOGP>  (55) 
4.07

>  <ALOGPS_LOGS>  (55) 
-4.23

>  <ALOGPS_SOLUBILITY>  (55) 
2.51e-02 g/l

>  <DATABASE_NAME>  (55) 
drugbank

>  <DRUGBANK_ID>  (55) 
DB15282

>  <DRUG_GROUPS>  (55) 
investigational

>  <EXACT_MASS>  (55) 
427.202436701

>  <FORMULA>  (55) 
C25H29FO5

>  <GENERIC_NAME>  (55) 
Fluorofuranylnorprogesterone F-18

>  <ID>  (55) 


>  <INCHI_IDENTIFIER>  (55) 
InChI=1S/C25H29FO5/c1-24-9-8-17-16-7-5-15(27)11-14(16)4-6-18(17)19(24)12-22-25(24,21(28)13-26)31-23(30-22)20-3-2-10-29-20/h2-3,10-11,16-19,22-23H,4-9,12-13H2,1H3/t16-,17+,18+,19-,22+,23+,24-,25+/m0/s1/i26-1

>  <INCHI_KEY>  (55) 
VJKRBRUNEOHPBS-JQKUZGBFSA-N

>  <INTERNATIONAL_BRANDS>  (55) 
nan

>  <JCHEM_ACCEPTOR_COUNT>  (55) 
4

>  <JCHEM_ATOM_COUNT>  (55) 
60

>  <JCHEM_AVERAGE_POLARIZABILITY>  (55) 
45.20102808212108

>  <JCHEM_BIOAVAILABILITY>  (55) 
1

>  <JCHEM_DONOR_COUNT>  (55) 
0

>  <JCHEM_FORMAL_CHARGE>  (55) 
0

>  <JCHEM_GHOSE_FILTER>  (55) 
1

>  <JCHEM_IUPAC>  (55) 
(1R,2S,4R,6R,8S,9S,12S,13R)-8-[2-(¹⁸F)fluoroacetyl]-6-(furan-2-yl)-9-methyl-5,7-dioxapentacyclo[10.8.0.0^{2,9}.0^{4,8}.0^{13,18}]icos-17-en-16-one

>  <JCHEM_LOGP>  (55) 
4.325398174333333

>  <JCHEM_MDDR_LIKE_RULE>  (55) 
0

>  <JCHEM_NUMBER_OF_RINGS>  (55) 
6

>  <JCHEM_PHYSIOLOGICAL_CHARGE>  (55) 
0

>  <JCHEM_PKA>  (55) 
18.25084056868475

>  <JCHEM_PKA_STRONGEST_ACIDIC>  (55) 
14.611950980290844

>  <JCHEM_PKA_STRONGEST_BASIC>  (55) 
-2.932416913544882

>  <JCHEM_POLAR_SURFACE_AREA>  (55) 
65.74000000000001

>  <JCHEM_REFRACTIVITY>  (55) 
110.27629999999999

>  <JCHEM_ROTATABLE_BOND_COUNT>  (55) 
3

>  <JCHEM_RULE_OF_FIVE>  (55) 
1

>  <JCHEM_TRADITIONAL_IUPAC>  (55) 
(2R)-14-fluoro-2-methyl-6,9,10,19-tetraazapentacyclo[14.2.1.0^{2,6}.0^{8,18}.0^{12,17}]nonadeca-1(18),8,12(17),13,15-pentaen-11-one

>  <JCHEM_VEBER_RULE>  (55) 
0

>  <MOLECULAR_WEIGHT>  (55) 
427.503

>  <PRODUCTS>  (55) 
nan

>  <SALTS>  (55) 
nan

>  <SECONDARY_ACCESSION_NUMBERS>  (55) 
nan

>  <SMILES>  (55) 
C[C@]12CC[C@H]3[C@@H](CCC4=CC(=O)CC[C@H]34)[C@@H]1C[C@H]1O[C@H](O[C@@]21C(=O)C[18F])C1=CC=CO1

>  <SYNONYMS>  (55) 
18F-FFNP

>  <ECFP_FP>  (55) 
<rdkit.DataStructs.cDataStructs.ExplicitBitVect object at 0xa26d62080>

>  <pki_G>  (55) 
5.928331

>  <pki_D>  (55) 
5.891646

>  <pki_B>  (55) 
5.338645

>  <pki_A>  (55) 
5.264761

>  <SelB>  (55) 
0.589687

>  <SelA>  (55) 
0.663571

>  <SelD>  (55) 
0.036685

>  <AvgABSel>  (55) 
0.626629

>  <MACCS_FP>  (55) 
[0. 0. 0. 0. 0. 0. 0. 0. 0. 0. 0. 0. 0. 0. 0. 0. 0. 0. 0. 0. 0. 0. 0. 0.
 0. 0. 1. 0. 0. 0. 0. 0. 0. 0. 0. 0. 0. 0. 0. 0. 0. 0. 1. 0. 0. 0. 0. 0.
 0. 0. 1. 0. 0. 0. 0. 0. 0. 1. 0. 0. 0. 0. 1. 0. 0. 0. 1. 0. 0. 0. 0. 0.
 1. 0. 0. 0. 1. 0. 0. 0. 0. 0. 0. 1. 0. 0. 0. 0. 0. 1. 0. 0. 0. 0. 0. 0.
 1. 0. 0. 1. 0. 1. 0. 0. 0. 1. 0. 0. 1. 0. 0. 0. 1. 0. 0. 1. 1. 0. 1. 0.
 1. 0. 0. 1. 0. 0. 0. 1. 1. 1. 0. 0. 1. 0. 1. 0. 1. 1. 0. 0. 1. 0. 0. 1.
 0. 1. 1. 1. 0. 0. 1. 0. 1. 1. 1. 1. 0. 1. 0. 1. 1. 0. 1. 1. 1. 1. 0.]

>  <MACCS_pki_G>  (55) 
5.994852

>  <MACCS_pki_D>  (55) 
5.998972

>  <MACCS_pki_B>  (55) 
5.652798

>  <MACCS_pki_A>  (55) 
5.380103

>  <MACCS_SelB>  (55) 
0.342054

>  <MACCS_SelA>  (55) 
0.614748

>  <MACCS_SelD>  (55) 
-0.00412

>  <MACCSAvgABSel>  (55) 
0.478401

>  <Pharm2D_FP>  (55) 
[0. 0. 0. ... 0. 0. 0.]

>  <Pharm2D_pki_G>  (55) 
6.001579

>  <Pharm2D_pki_D>  (55) 
5.476073

>  <Pharm2D_pki_B>  (55) 
5.354417

>  <Pharm2D_pki_A>  (55) 
4.999794

>  <Pharm2D_SelB>  (55) 
0.647163

>  <Pharm2D_SelA>  (55) 
1.001786

>  <Pharm2D_SelD>  (55) 
0.525506

>  <Pharm2DAvgABSel>  (55) 
0.824474

>  <QED>  (55) 
0.698208

$$$$
DB07345
     RDKit          2D

 16 17  0  0  0  0  0  0  0  0999 V2000
   -0.8034   -0.8844    0.0000 C   0  0  0  0  0  0  0  0  0  0  0  0
    1.3400   -0.4719    0.0000 C   0  0  0  0  0  0  0  0  0  0  0  0
    0.6255   -1.7094    0.0000 C   0  0  0  0  0  0  0  0  0  0  0  0
   -0.8034    0.7656    0.0000 C   0  0  0  0  0  0  0  0  0  0  0  0
   -1.5179   -0.4719    0.0000 C   0  0  0  0  0  0  0  0  0  0  0  0
    2.0545   -0.8844    0.0000 C   0  0  0  0  0  0  0  0  0  0  0  0
   -0.8034    1.5906    0.0000 C   0  0  0  0  0  0  0  0  0  0  0  0
   -1.5179    2.0031    0.0000 C   0  0  0  0  0  0  0  0  0  0  0  0
   -0.8034   -1.7094    0.0000 O   0  0  0  0  0  0  0  0  0  0  0  0
   -1.5179    0.3531    0.0000 C   0  0  0  0  0  0  0  0  0  0  0  0
   -1.5179    2.8281    0.0000 N   0  0  0  0  0  0  0  0  0  0  0  0
   -0.0889    0.3531    0.0000 C   0  0  0  0  0  0  0  0  0  0  0  0
   -0.0889   -0.4719    0.0000 C   0  0  0  0  0  0  0  0  0  0  0  0
    0.6255   -0.8844    0.0000 C   0  0  0  0  0  0  0  0  0  0  0  0
    2.0545   -1.7094    0.0000 C   0  0  0  0  0  0  0  0  0  0  0  0
    1.3400   -2.1219    0.0000 C   0  0  0  0  0  0  0  0  0  0  0  0
  1  5  2  0
  1  9  1  0
  1 13  1  0
  2  6  1  0
  2 14  1  0
  3 14  1  0
  3 16  1  0
  4  7  1  0
  4 10  2  0
  4 12  1  0
  5 10  1  0
  6 15  1  0
  7  8  1  0
  8 11  1  0
 12 13  2  0
 13 14  1  0
 15 16  1  0
M  END
>  <ALOGPS_LOGP>  (56) 
3.34

>  <ALOGPS_LOGS>  (56) 
-3.69

>  <ALOGPS_SOLUBILITY>  (56) 
4.51e-02 g/l

>  <DATABASE_NAME>  (56) 
drugbank

>  <DRUGBANK_ID>  (56) 
DB07345

>  <DRUG_GROUPS>  (56) 
experimental

>  <EXACT_MASS>  (56) 
219.162314299

>  <FORMULA>  (56) 
C14H21NO

>  <GENERIC_NAME>  (56) 
4-(2-aminoethyl)-2-cyclohexylphenol

>  <ID>  (56) 
AED

>  <INCHI_IDENTIFIER>  (56) 
InChI=1S/C14H21NO/c15-9-8-11-6-7-14(16)13(10-11)12-4-2-1-3-5-12/h6-7,10,12,16H,1-5,8-9,15H2

>  <INCHI_KEY>  (56) 
DOCCSEDGBYCYLS-UHFFFAOYSA-N

>  <INTERNATIONAL_BRANDS>  (56) 
nan

>  <JCHEM_ACCEPTOR_COUNT>  (56) 
2

>  <JCHEM_ATOM_COUNT>  (56) 
nan

>  <JCHEM_AVERAGE_POLARIZABILITY>  (56) 
26.34194811691106

>  <JCHEM_BIOAVAILABILITY>  (56) 
1

>  <JCHEM_DONOR_COUNT>  (56) 
2

>  <JCHEM_FORMAL_CHARGE>  (56) 
0

>  <JCHEM_GHOSE_FILTER>  (56) 
1

>  <JCHEM_IUPAC>  (56) 
4-(2-aminoethyl)-2-cyclohexylphenol

>  <JCHEM_LOGP>  (56) 
2.9012850733052487

>  <JCHEM_MDDR_LIKE_RULE>  (56) 
0

>  <JCHEM_NUMBER_OF_RINGS>  (56) 
2

>  <JCHEM_PHYSIOLOGICAL_CHARGE>  (56) 
1

>  <JCHEM_PKA>  (56) 
nan

>  <JCHEM_PKA_STRONGEST_ACIDIC>  (56) 
10.768760053719905

>  <JCHEM_PKA_STRONGEST_BASIC>  (56) 
9.761871379225692

>  <JCHEM_POLAR_SURFACE_AREA>  (56) 
46.25

>  <JCHEM_REFRACTIVITY>  (56) 
67.4589

>  <JCHEM_ROTATABLE_BOND_COUNT>  (56) 
3

>  <JCHEM_RULE_OF_FIVE>  (56) 
1

>  <JCHEM_TRADITIONAL_IUPAC>  (56) 
4-(2-aminoethyl)-2-cyclohexylphenol

>  <JCHEM_VEBER_RULE>  (56) 
0

>  <MOLECULAR_WEIGHT>  (56) 
219.3226

>  <PRODUCTS>  (56) 
nan

>  <SALTS>  (56) 
nan

>  <SECONDARY_ACCESSION_NUMBERS>  (56) 
nan

>  <SMILES>  (56) 
NCCC1=CC=C(O)C(=C1)C1CCCCC1

>  <SYNONYMS>  (56) 
nan

>  <ECFP_FP>  (56) 
<rdkit.DataStructs.cDataStructs.ExplicitBitVect object at 0xa26a75cb0>

>  <pki_G>  (56) 
5.923009

>  <pki_D>  (56) 
5.780917

>  <pki_B>  (56) 
5.45825

>  <pki_A>  (56) 
5.514769

>  <SelB>  (56) 
0.46476

>  <SelA>  (56) 
0.40824

>  <SelD>  (56) 
0.142092

>  <AvgABSel>  (56) 
0.4365

>  <MACCS_FP>  (56) 
[0. 0. 0. 0. 0. 0. 0. 0. 0. 0. 0. 0. 0. 0. 0. 0. 0. 0. 0. 0. 0. 0. 0. 0.
 0. 0. 0. 0. 0. 0. 0. 0. 0. 0. 0. 0. 0. 0. 0. 0. 0. 0. 0. 0. 0. 0. 0. 0.
 0. 0. 0. 0. 0. 0. 0. 0. 0. 0. 0. 0. 0. 0. 1. 0. 0. 0. 0. 0. 0. 0. 0. 0.
 0. 0. 0. 0. 0. 0. 0. 0. 0. 0. 1. 0. 1. 0. 0. 0. 0. 0. 0. 1. 0. 0. 0. 0.
 0. 0. 0. 0. 1. 0. 0. 0. 1. 0. 0. 0. 0. 0. 0. 1. 0. 1. 0. 0. 0. 0. 1. 0.
 0. 0. 0. 0. 0. 0. 0. 1. 1. 1. 0. 1. 0. 0. 0. 0. 0. 0. 0. 1. 0. 0. 0. 1.
 1. 1. 0. 1. 0. 0. 1. 1. 1. 1. 0. 1. 0. 1. 1. 0. 0. 1. 1. 1. 1. 1. 0.]

>  <MACCS_pki_G>  (56) 
5.936604

>  <MACCS_pki_D>  (56) 
5.793283

>  <MACCS_pki_B>  (56) 
5.796823

>  <MACCS_pki_A>  (56) 
5.880473

>  <MACCS_SelB>  (56) 
0.139781

>  <MACCS_SelA>  (56) 
0.056131

>  <MACCS_SelD>  (56) 
0.143321

>  <MACCSAvgABSel>  (56) 
0.097956

>  <Pharm2D_FP>  (56) 
[0. 0. 0. ... 0. 0. 0.]

>  <Pharm2D_pki_G>  (56) 
6.091702

>  <Pharm2D_pki_D>  (56) 
5.564335

>  <Pharm2D_pki_B>  (56) 
5.344432

>  <Pharm2D_pki_A>  (56) 
5.07036

>  <Pharm2D_SelB>  (56) 
0.74727

>  <Pharm2D_SelA>  (56) 
1.021342

>  <Pharm2D_SelD>  (56) 
0.527367

>  <Pharm2DAvgABSel>  (56) 
0.884306

>  <QED>  (56) 
0.820685

$$$$
DB13270
     RDKit          2D

 31 33  0  0  1  0  0  0  0  0999 V2000
   -2.8579    2.4750    0.0000 C   0  0  0  0  0  0  0  0  0  0  0  0
   -2.8579    3.3000    0.0000 C   0  0  0  0  0  0  0  0  0  0  0  0
   -6.4302    2.0625    0.0000 C   0  0  0  0  0  0  0  0  0  0  0  0
   -3.5724    1.2375    0.0000 C   0  0  0  0  0  0  0  0  0  0  0  0
   -6.4302    6.1875    0.0000 C   0  0  0  0  0  0  0  0  0  0  0  0
   -3.5724    2.0625    0.0000 C   0  0  0  0  0  0  0  0  0  0  0  0
   -3.5724    3.7125    0.0000 C   0  0  0  0  0  0  0  0  0  0  0  0
   -5.7158    2.4750    0.0000 C   0  0  0  0  0  0  0  0  0  0  0  0
   -7.1447    2.4750    0.0000 C   0  0  0  0  0  0  0  0  0  0  0  0
   -7.1447    5.7750    0.0000 C   0  0  0  0  0  0  0  0  0  0  0  0
   -8.5737    5.7750    0.0000 C   0  0  0  0  0  0  0  0  0  0  0  0
   -7.8592    6.1875    0.0000 C   0  0  0  0  0  0  0  0  0  0  0  0
   -8.5737    4.9500    0.0000 C   0  0  0  0  0  0  0  0  0  0  0  0
   -6.4302    3.7125    0.0000 C   0  0  0  0  0  0  0  0  0  0  0  0
   -5.7158    3.3000    0.0000 C   0  0  0  0  0  0  0  0  0  0  0  0
   -7.1447    3.3000    0.0000 C   0  0  0  0  0  0  0  0  0  0  0  0
   -4.2868    3.3000    0.0000 C   0  0  0  0  0  0  0  0  0  0  0  0
   -7.8592    4.5375    0.0000 C   0  0  0  0  0  0  0  0  0  0  0  0
   -2.8579    0.8250    0.0000 N   0  0  0  0  0  0  0  0  0  0  0  0
   -3.5724    4.5375    0.0000 N   0  0  0  0  0  0  0  0  0  0  0  0
   -5.0013    2.0625    0.0000 N   0  0  0  0  0  0  0  0  0  0  0  0
   -7.8592    2.0625    0.0000 N   0  0  0  0  0  0  0  0  0  0  0  0
   -9.2881    6.1875    0.0000 N   0  0  0  0  0  0  0  0  0  0  0  0
   -5.7158    5.7750    0.0000 O   0  0  0  0  0  0  0  0  0  0  0  0
   -7.8592    7.0125    0.0000 O   0  0  0  0  0  0  0  0  0  0  0  0
   -9.2881    4.5375    0.0000 O   0  0  0  0  0  0  0  0  0  0  0  0
   -6.4302    4.5375    0.0000 O   0  0  0  0  0  0  0  0  0  0  0  0
   -4.2868    2.4750    0.0000 O   0  0  0  0  0  0  0  0  0  0  0  0
   -7.1447    4.9500    0.0000 O   0  0  0  0  0  0  0  0  0  0  0  0
   -5.0013    3.7125    0.0000 O   0  0  0  0  0  0  0  0  0  0  0  0
   -7.8592    3.7125    0.0000 O   0  0  0  0  0  0  0  0  0  0  0  0
  2  1  1  0
  6  1  1  0
  6  4  1  1
  7  2  1  0
  8  3  1  0
  9  3  1  0
 10  5  1  1
 12 10  1  0
 12 11  1  0
 13 11  1  0
 15  8  1  0
 15 14  1  0
 16  9  1  0
 16 14  1  0
 17  7  1  0
 18 13  1  0
 19  4  1  0
  7 20  1  6
  8 21  1  1
  9 22  1  1
 11 23  1  1
 24  5  1  0
 12 25  1  6
 13 26  1  6
 14 27  1  1
 28  6  1  0
 28 17  1  0
 29 10  1  0
 29 18  1  0
 15 30  1  6
 17 30  1  6
 16 31  1  6
 18 31  1  6
M  END
>  <ALOGPS_LOGP>  (57) 
-2.65

>  <ALOGPS_LOGS>  (57) 
-1.13

>  <ALOGPS_SOLUBILITY>  (57) 
3.39e+01 g/l

>  <DATABASE_NAME>  (57) 
drugbank

>  <DRUGBANK_ID>  (57) 
DB13270

>  <DRUG_GROUPS>  (57) 
approved

>  <EXACT_MASS>  (57) 
451.264213171

>  <FORMULA>  (57) 
C18H37N5O8

>  <GENERIC_NAME>  (57) 
Dibekacin

>  <ID>  (57) 


>  <INCHI_IDENTIFIER>  (57) 
InChI=1S/C18H37N5O8/c19-4-6-1-2-7(20)17(28-6)30-15-8(21)3-9(22)16(14(15)27)31-18-13(26)11(23)12(25)10(5-24)29-18/h6-18,24-27H,1-5,19-23H2/t6-,7+,8-,9+,10+,11-,12+,13+,14-,15+,16-,17+,18+/m0/s1

>  <INCHI_KEY>  (57) 
JJCQSGDBDPYCEO-XVZSLQNASA-N

>  <INTERNATIONAL_BRANDS>  (57) 
nan

>  <JCHEM_ACCEPTOR_COUNT>  (57) 
13

>  <JCHEM_ATOM_COUNT>  (57) 
68

>  <JCHEM_AVERAGE_POLARIZABILITY>  (57) 
45.98370973252222

>  <JCHEM_BIOAVAILABILITY>  (57) 
0

>  <JCHEM_DONOR_COUNT>  (57) 
9

>  <JCHEM_FORMAL_CHARGE>  (57) 
0

>  <JCHEM_GHOSE_FILTER>  (57) 
0

>  <JCHEM_IUPAC>  (57) 
(2S,3R,4S,5S,6R)-4-amino-2-{[(1S,2S,3R,4S,6R)-4,6-diamino-3-{[(2R,3R,6S)-3-amino-6-(aminomethyl)oxan-2-yl]oxy}-2-hydroxycyclohexyl]oxy}-6-(hydroxymethyl)oxane-3,5-diol

>  <JCHEM_LOGP>  (57) 
-5.329802951666668

>  <JCHEM_MDDR_LIKE_RULE>  (57) 
1

>  <JCHEM_NUMBER_OF_RINGS>  (57) 
3

>  <JCHEM_PHYSIOLOGICAL_CHARGE>  (57) 
5

>  <JCHEM_PKA>  (57) 
13.132839127476881

>  <JCHEM_PKA_STRONGEST_ACIDIC>  (57) 
12.542764098344968

>  <JCHEM_PKA_STRONGEST_BASIC>  (57) 
9.956986298751204

>  <JCHEM_POLAR_SURFACE_AREA>  (57) 
247.9399999999999

>  <JCHEM_REFRACTIVITY>  (57) 
105.37699999999998

>  <JCHEM_ROTATABLE_BOND_COUNT>  (57) 
6

>  <JCHEM_RULE_OF_FIVE>  (57) 
0

>  <JCHEM_TRADITIONAL_IUPAC>  (57) 
dibekacin

>  <JCHEM_VEBER_RULE>  (57) 
0

>  <MOLECULAR_WEIGHT>  (57) 
451.521

>  <PRODUCTS>  (57) 
nan

>  <SALTS>  (57) 
nan

>  <SECONDARY_ACCESSION_NUMBERS>  (57) 
nan

>  <SMILES>  (57) 
[H][C@@]1(N)CC[C@@]([H])(CN)O[C@]1([H])O[C@]1([H])[C@@]([H])(N)C[C@@]([H])(N)[C@]([H])(O[C@@]2([H])O[C@]([H])(CO)[C@@]([H])(O)[C@]([H])(N)[C@@]2([H])O)[C@@]1([H])O

>  <SYNONYMS>  (57) 
Dibekacin

>  <ECFP_FP>  (57) 
<rdkit.DataStructs.cDataStructs.ExplicitBitVect object at 0xa26c958f0>

>  <pki_G>  (57) 
5.92184

>  <pki_D>  (57) 
5.862512

>  <pki_B>  (57) 
5.495033

>  <pki_A>  (57) 
5.022814

>  <SelB>  (57) 
0.426807

>  <SelA>  (57) 
0.899026

>  <SelD>  (57) 
0.059328

>  <AvgABSel>  (57) 
0.662917

>  <MACCS_FP>  (57) 
[0. 0. 0. 0. 0. 0. 0. 0. 0. 0. 0. 0. 0. 0. 0. 0. 0. 0. 0. 0. 0. 0. 0. 0.
 0. 0. 0. 0. 0. 0. 0. 0. 0. 0. 0. 0. 0. 0. 0. 0. 0. 0. 0. 0. 0. 0. 0. 0.
 0. 0. 0. 0. 0. 1. 1. 0. 0. 1. 0. 0. 0. 0. 0. 0. 0. 0. 0. 0. 0. 0. 0. 0.
 1. 0. 0. 0. 0. 0. 0. 0. 1. 0. 1. 0. 1. 0. 0. 0. 0. 1. 1. 1. 0. 0. 0. 1.
 0. 1. 1. 0. 1. 0. 0. 0. 1. 0. 0. 0. 0. 1. 0. 1. 0. 0. 0. 0. 0. 0. 1. 0.
 1. 0. 0. 1. 0. 0. 1. 1. 0. 1. 0. 1. 1. 1. 0. 0. 0. 1. 1. 1. 1. 0. 1. 1.
 0. 1. 1. 1. 0. 0. 1. 1. 1. 1. 0. 1. 1. 1. 1. 1. 0. 1. 0. 1. 1. 1. 0.]

>  <MACCS_pki_G>  (57) 
6.198538

>  <MACCS_pki_D>  (57) 
5.869896

>  <MACCS_pki_B>  (57) 
6.113452

>  <MACCS_pki_A>  (57) 
6.041834

>  <MACCS_SelB>  (57) 
0.085086

>  <MACCS_SelA>  (57) 
0.156704

>  <MACCS_SelD>  (57) 
0.328641

>  <MACCSAvgABSel>  (57) 
0.120895

>  <Pharm2D_FP>  (57) 
[0. 0. 0. ... 0. 0. 0.]

>  <Pharm2D_pki_G>  (57) 
6.586306

>  <Pharm2D_pki_D>  (57) 
5.906264

>  <Pharm2D_pki_B>  (57) 
5.720499

>  <Pharm2D_pki_A>  (57) 
5.128721

>  <Pharm2D_SelB>  (57) 
0.865807

>  <Pharm2D_SelA>  (57) 
1.457586

>  <Pharm2D_SelD>  (57) 
0.680043

>  <Pharm2DAvgABSel>  (57) 
1.161697

>  <QED>  (57) 
0.183193

$$$$
DB11423
     RDKit          2D

 42 44  0  0  1  0  0  0  0  0999 V2000
   -1.4521    4.0399    0.0000 C   0  0  0  0  0  0  0  0  0  0  0  0
   -7.1817   -0.3703    0.0000 C   0  0  0  0  0  0  0  0  0  0  0  0
   -4.4838    3.5100    0.0000 C   0  0  0  0  0  0  0  0  0  0  0  0
    0.6914    3.6274    0.0000 C   0  0  0  0  0  0  0  0  0  0  0  0
    4.9782    1.1524    0.0000 C   0  0  0  0  0  0  0  0  0  0  0  0
   -2.3541    1.0173    0.0000 C   0  0  0  0  0  0  0  0  0  0  0  0
   -0.7376    3.6274    0.0000 C   0  0  0  0  0  0  0  0  0  0  0  0
   -5.3491   -0.4985    0.0000 C   0  0  0  0  0  0  0  0  0  0  0  0
   -2.1665    3.6274    0.0000 C   0  0  0  0  0  0  0  0  0  0  0  0
   -6.3886   -0.1429    0.0000 C   0  0  0  0  0  0  0  0  0  0  0  0
   -4.7387    2.7254    0.0000 C   0  0  0  0  0  0  0  0  0  0  0  0
    1.4058    2.3899    0.0000 C   0  0  0  0  0  0  0  0  0  0  0  0
    4.2637    2.3899    0.0000 C   0  0  0  0  0  0  0  0  0  0  0  0
    2.1203    2.8024    0.0000 C   0  0  0  0  0  0  0  0  0  0  0  0
    3.5492    2.8024    0.0000 C   0  0  0  0  0  0  0  0  0  0  0  0
   -5.6078    1.9630    0.0000 C   0  0  0  0  0  0  0  0  0  0  0  0
   -6.2753    1.4780    0.0000 C   0  0  0  0  0  0  0  0  0  0  0  0
   -3.7742    1.3979    0.0000 C   0  0  0  0  0  0  0  0  0  0  0  0
    0.6914    2.8024    0.0000 C   0  0  0  0  0  0  0  0  0  0  0  0
    4.2637    1.5649    0.0000 C   0  0  0  0  0  0  0  0  0  0  0  0
   -2.9672    1.5694    0.0000 C   0  0  0  0  0  0  0  0  0  0  0  0
   -0.7376    2.8024    0.0000 C   0  0  0  0  0  0  0  0  0  0  0  0
   -5.4354    0.3220    0.0000 C   0  0  0  0  0  0  0  0  0  0  0  0
    2.8348    2.3899    0.0000 C   0  0  0  0  0  0  0  0  0  0  0  0
   -2.1665    2.8024    0.0000 C   0  0  0  0  0  0  0  0  0  0  0  0
   -4.8541    1.6274    0.0000 C   0  0  0  0  0  0  0  0  0  0  0  0
    2.8348    1.5649    0.0000 C   0  0  0  0  0  0  0  0  0  0  0  0
   -0.0231    2.3899    0.0000 C   0  0  0  0  0  0  0  0  0  0  0  0
    3.5492    1.1524    0.0000 C   0  0  0  0  0  0  0  0  0  0  0  0
   -1.4521    2.3899    0.0000 C   0  0  0  0  0  0  0  0  0  0  0  0
   -2.8810    2.3899    0.0000 C   0  0  0  0  0  0  0  0  0  0  0  0
    2.1203    1.1524    0.0000 C   0  0  0  0  0  0  0  0  0  0  0  0
   -6.1890    0.6576    0.0000 C   0  0  0  0  0  0  0  0  0  0  0  0
   -4.1867    2.1123    0.0000 C   0  0  0  0  0  0  0  0  0  0  0  0
   -0.0231    1.5649    0.0000 O   0  0  0  0  0  0  0  0  0  0  0  0
    3.5492    0.3274    0.0000 O   0  0  0  0  0  0  0  0  0  0  0  0
   -1.4521    1.5649    0.0000 O   0  0  0  0  0  0  0  0  0  0  0  0
    2.1203    0.3274    0.0000 O   0  0  0  0  0  0  0  0  0  0  0  0
    1.4058    1.5649    0.0000 O   0  0  0  0  0  0  0  0  0  0  0  0
   -7.0120    0.7151    0.0000 O   0  0  0  0  0  0  0  0  0  0  0  0
   -4.7679    0.8069    0.0000 O   0  0  0  0  0  0  0  0  0  0  0  0
   -3.6347    2.7254    0.0000 O   0  0  0  0  0  0  0  0  0  0  0  0
  9  1  1  0
 10  2  1  0
 11  3  1  0
 14 12  1  0
 15 13  2  0
 17 16  1  0
 19  4  1  6
 19 12  1  0
 20  5  1  0
 20 13  1  0
 21  6  1  1
 21 18  1  0
 22  7  1  1
 23  8  1  1
 24 14  1  0
 24 15  1  0
 25  9  1  1
 26 16  1  6
 27 24  2  0
 28 19  1  0
 28 22  1  0
 29 20  2  0
 29 27  1  0
 30 22  1  0
 25 30  1  0
 31 21  1  0
 31 25  1  0
 32 27  1  0
 33 10  1  0
 33 17  1  0
 33 23  1  0
 34 11  1  6
 34 18  1  0
 26 34  1  0
 28 35  1  6
 36 29  1  0
 37 30  2  0
 38 32  2  0
 39 32  1  0
 33 40  1  6
 41 23  1  0
 41 26  1  0
 31 42  1  6
 42 34  1  0
M  END
>  <ALOGPS_LOGP>  (58) 
4.91

>  <ALOGPS_LOGS>  (58) 
-5.14

>  <ALOGPS_SOLUBILITY>  (58) 
4.32e-03 g/l

>  <DATABASE_NAME>  (58) 
drugbank

>  <DRUGBANK_ID>  (58) 
DB11423

>  <DRUG_GROUPS>  (58) 
vet_approved

>  <EXACT_MASS>  (58) 
590.381868699

>  <FORMULA>  (58) 
C34H54O8

>  <GENERIC_NAME>  (58) 
Lasalocid

>  <ID>  (58) 


>  <INCHI_IDENTIFIER>  (58) 
InChI=1S/C34H54O8/c1-9-25(31-21(6)18-34(11-3,42-31)26-16-17-33(40,10-2)23(8)41-26)30(37)22(7)28(35)19(4)12-14-24-15-13-20(5)29(36)27(24)32(38)39/h13,15,19,21-23,25-26,28,31,35-36,40H,9-12,14,16-18H2,1-8H3,(H,38,39)/t19-,21+,22+,23+,25+,26-,28+,31+,33-,34+/m1/s1

>  <INCHI_KEY>  (58) 
BBMULGJBVDDDNI-OWKLGTHSSA-N

>  <INTERNATIONAL_BRANDS>  (58) 
nan

>  <JCHEM_ACCEPTOR_COUNT>  (58) 
8

>  <JCHEM_ATOM_COUNT>  (58) 
96

>  <JCHEM_AVERAGE_POLARIZABILITY>  (58) 
66.61111519940248

>  <JCHEM_BIOAVAILABILITY>  (58) 
0

>  <JCHEM_DONOR_COUNT>  (58) 
4

>  <JCHEM_FORMAL_CHARGE>  (58) 
0

>  <JCHEM_GHOSE_FILTER>  (58) 
0

>  <JCHEM_IUPAC>  (58) 
6-[(3R,4S,5S,7R)-7-[(2S,3S,5S)-5-ethyl-5-[(2R,5R,6S)-5-ethyl-5-hydroxy-6-methyloxan-2-yl]-3-methyloxolan-2-yl]-4-hydroxy-3,5-dimethyl-6-oxononyl]-2-hydroxy-3-methylbenzoic acid

>  <JCHEM_LOGP>  (58) 
7.665259109333331

>  <JCHEM_MDDR_LIKE_RULE>  (58) 
1

>  <JCHEM_NUMBER_OF_RINGS>  (58) 
3

>  <JCHEM_PHYSIOLOGICAL_CHARGE>  (58) 
-1

>  <JCHEM_PKA>  (58) 
13.556437654088406

>  <JCHEM_PKA_STRONGEST_ACIDIC>  (58) 
2.6407442382114934

>  <JCHEM_PKA_STRONGEST_BASIC>  (58) 
-3.00171022442235

>  <JCHEM_POLAR_SURFACE_AREA>  (58) 
133.52

>  <JCHEM_REFRACTIVITY>  (58) 
162.80230000000006

>  <JCHEM_ROTATABLE_BOND_COUNT>  (58) 
13

>  <JCHEM_RULE_OF_FIVE>  (58) 
0

>  <JCHEM_TRADITIONAL_IUPAC>  (58) 
lasalocid

>  <JCHEM_VEBER_RULE>  (58) 
0

>  <MOLECULAR_WEIGHT>  (58) 
590.798

>  <PRODUCTS>  (58) 
nan

>  <SALTS>  (58) 
nan

>  <SECONDARY_ACCESSION_NUMBERS>  (58) 
nan

>  <SMILES>  (58) 
[H][C@@](C)(CCC1=C(C(O)=O)C(O)=C(C)C=C1)[C@]([H])(O)[C@]([H])(C)C(=O)[C@]([H])(CC)[C@@]1([H])O[C@@](CC)(C[C@]1([H])C)[C@@]1([H])CC[C@](O)(CC)[C@]([H])(C)O1

>  <SYNONYMS>  (58) 
nan

>  <ECFP_FP>  (58) 
<rdkit.DataStructs.cDataStructs.ExplicitBitVect object at 0xa26bbbe90>

>  <pki_G>  (58) 
5.91553

>  <pki_D>  (58) 
5.844431

>  <pki_B>  (58) 
5.415497

>  <pki_A>  (58) 
5.382546

>  <SelB>  (58) 
0.500033

>  <SelA>  (58) 
0.532984

>  <SelD>  (58) 
0.071099

>  <AvgABSel>  (58) 
0.516508

>  <MACCS_FP>  (58) 
[0. 0. 0. 0. 0. 0. 0. 0. 0. 0. 0. 0. 0. 0. 0. 0. 0. 0. 0. 0. 0. 0. 0. 0.
 0. 0. 0. 0. 0. 0. 0. 0. 0. 0. 0. 0. 0. 0. 0. 0. 0. 0. 0. 0. 0. 0. 0. 0.
 0. 0. 0. 0. 0. 1. 0. 0. 0. 1. 0. 0. 0. 0. 1. 0. 0. 0. 1. 0. 0. 0. 0. 0.
 1. 0. 0. 0. 0. 0. 0. 0. 0. 0. 0. 1. 0. 0. 0. 0. 0. 1. 1. 1. 0. 0. 0. 0.
 1. 0. 1. 0. 0. 0. 0. 0. 1. 0. 0. 0. 1. 0. 0. 0. 1. 1. 1. 1. 1. 0. 1. 0.
 1. 0. 0. 1. 0. 0. 0. 1. 1. 1. 0. 1. 1. 0. 0. 0. 1. 1. 0. 1. 1. 1. 0. 1.
 1. 1. 1. 1. 0. 1. 1. 0. 1. 0. 1. 1. 0. 1. 0. 1. 1. 0. 1. 1. 1. 1. 0.]

>  <MACCS_pki_G>  (58) 
6.0151

>  <MACCS_pki_D>  (58) 
5.830884

>  <MACCS_pki_B>  (58) 
5.53054

>  <MACCS_pki_A>  (58) 
5.817453

>  <MACCS_SelB>  (58) 
0.48456

>  <MACCS_SelA>  (58) 
0.197647

>  <MACCS_SelD>  (58) 
0.184216

>  <MACCSAvgABSel>  (58) 
0.341104

>  <Pharm2D_FP>  (58) 
[0. 0. 0. ... 0. 0. 0.]

>  <Pharm2D_pki_G>  (58) 
6.149954

>  <Pharm2D_pki_D>  (58) 
5.603749

>  <Pharm2D_pki_B>  (58) 
5.407804

>  <Pharm2D_pki_A>  (58) 
5.303556

>  <Pharm2D_SelB>  (58) 
0.74215

>  <Pharm2D_SelA>  (58) 
0.846398

>  <Pharm2D_SelD>  (58) 
0.546205

>  <Pharm2DAvgABSel>  (58) 
0.794274

>  <QED>  (58) 
0.225124

$$$$
DB04898
     RDKit          2D

 34 36  0  0  1  0  0  0  0  0999 V2000
    6.6001   -2.5484    0.0000 O   0  0  0  0  0  0  0  0  0  0  0  0
    7.0051   -1.0370    0.0000 O   0  0  0  0  0  0  0  0  0  0  0  0
    2.8876   -4.6919    0.0000 O   0  0  0  0  0  0  0  0  0  0  0  0
    2.8876   -3.2629    0.0000 O   0  0  0  0  0  0  0  0  0  0  0  0
    6.2906    5.1506    0.0000 O   0  0  0  0  0  0  0  0  0  0  0  0
    5.3626   -1.8339    0.0000 N   0  0  0  0  0  0  0  0  0  0  0  0
    4.5376   -3.2629    0.0000 N   0  0  0  0  0  0  0  0  0  0  0  0
    6.2906    0.2005    0.0000 N   0  0  0  0  0  0  0  0  0  0  0  0
    7.7196    4.3256    0.0000 N   0  0  0  0  0  0  0  0  0  0  0  0
    6.2906    4.3256    0.0000 N   0  0  0  0  0  0  0  0  0  0  0  0
    5.7751   -3.9774    0.0000 C   0  0  0  0  0  0  0  0  0  0  0  0
    5.3626   -3.2629    0.0000 C   0  0  0  0  0  0  0  0  0  0  0  0
    5.3626   -4.6919    0.0000 C   0  0  0  0  0  0  0  0  0  0  0  0
    6.6001   -3.9774    0.0000 C   0  0  0  0  0  0  0  0  0  0  0  0
    5.7751   -5.4063    0.0000 C   0  0  0  0  0  0  0  0  0  0  0  0
    7.0127   -4.6919    0.0000 C   0  0  0  0  0  0  0  0  0  0  0  0
    5.5761   -1.0370    0.0000 C   0  0  0  0  0  0  0  0  0  0  0  0
    6.6001   -5.4063    0.0000 C   0  0  0  0  0  0  0  0  0  0  0  0
    4.5657   -1.6204    0.0000 C   0  0  0  0  0  0  0  0  0  0  0  0
    4.7792   -0.8235    0.0000 C   0  0  0  0  0  0  0  0  0  0  0  0
    5.7751   -2.5484    0.0000 C   0  0  0  0  0  0  0  0  0  0  0  0
    6.2906   -0.6245    0.0000 C   0  0  0  0  0  0  0  0  0  0  0  0
    4.1251   -3.9774    0.0000 C   0  0  0  0  0  0  0  0  0  0  0  0
    3.3001   -3.9774    0.0000 C   0  0  0  0  0  0  0  0  0  0  0  0
    7.0051    0.6130    0.0000 C   0  0  0  0  0  0  0  0  0  0  0  0
    7.0051    1.4380    0.0000 C   0  0  0  0  0  0  0  0  0  0  0  0
    6.2906    1.8505    0.0000 C   0  0  0  0  0  0  0  0  0  0  0  0
    7.7196    1.8505    0.0000 C   0  0  0  0  0  0  0  0  0  0  0  0
    2.0625   -4.6919    0.0000 C   0  0  0  0  0  0  0  0  0  0  0  0
    6.2906    2.6755    0.0000 C   0  0  0  0  0  0  0  0  0  0  0  0
    7.7196    2.6755    0.0000 C   0  0  0  0  0  0  0  0  0  0  0  0
    7.0051    3.0880    0.0000 C   0  0  0  0  0  0  0  0  0  0  0  0
    1.6500   -5.4063    0.0000 C   0  0  0  0  0  0  0  0  0  0  0  0
    7.0051    3.9131    0.0000 C   0  0  0  0  0  0  0  0  0  0  0  0
  1 21  2  0
  2 22  2  0
  3 24  1  0
  3 29  1  0
  4 24  2  0
  5 10  1  0
  6 17  1  0
  6 19  1  0
  6 21  1  0
 12  7  1  1
  7 23  1  0
  8 22  1  0
  8 25  1  0
  9 34  1  0
 10 34  2  0
 11 12  1  0
 11 13  1  0
 11 14  1  0
 12 21  1  0
 13 15  1  0
 14 16  1  0
 15 18  1  0
 16 18  1  0
 17 20  1  0
 17 22  1  1
 19 20  1  0
 23 24  1  0
 25 26  1  0
 26 27  2  0
 26 28  1  0
 27 30  1  0
 28 31  2  0
 29 33  1  0
 30 32  2  0
 31 32  1  0
 32 34  1  0
M  END
>  <ALOGPS_LOGP>  (59) 
1.35

>  <ALOGPS_LOGS>  (59) 
-3.75

>  <ALOGPS_SOLUBILITY>  (59) 
8.45e-02 g/l

>  <DATABASE_NAME>  (59) 
drugbank

>  <DRUGBANK_ID>  (59) 
DB04898

>  <DRUG_GROUPS>  (59) 
approved; investigational; withdrawn

>  <EXACT_MASS>  (59) 
473.263819255

>  <FORMULA>  (59) 
C24H35N5O5

>  <GENERIC_NAME>  (59) 
Ximelagatran

>  <ID>  (59) 


>  <INCHI_IDENTIFIER>  (59) 
InChI=1S/C24H35N5O5/c1-2-34-20(30)15-26-21(17-6-4-3-5-7-17)24(32)29-13-12-19(29)23(31)27-14-16-8-10-18(11-9-16)22(25)28-33/h8-11,17,19,21,26,33H,2-7,12-15H2,1H3,(H2,25,28)(H,27,31)/t19-,21+/m0/s1

>  <INCHI_KEY>  (59) 
ZXIBCJHYVWYIKI-PZJWPPBQSA-N

>  <INTERNATIONAL_BRANDS>  (59) 
nan

>  <JCHEM_ACCEPTOR_COUNT>  (59) 
7

>  <JCHEM_ATOM_COUNT>  (59) 
nan

>  <JCHEM_AVERAGE_POLARIZABILITY>  (59) 
52.148328970556044

>  <JCHEM_BIOAVAILABILITY>  (59) 
1

>  <JCHEM_DONOR_COUNT>  (59) 
4

>  <JCHEM_FORMAL_CHARGE>  (59) 
0

>  <JCHEM_GHOSE_FILTER>  (59) 
1

>  <JCHEM_IUPAC>  (59) 
ethyl 2-{[(1R)-1-cyclohexyl-2-[(2S)-2-[({4-[(Z)-N'-hydroxycarbamimidoyl]phenyl}methyl)carbamoyl]azetidin-1-yl]-2-oxoethyl]amino}acetate

>  <JCHEM_LOGP>  (59) 
0.8693069373333331

>  <JCHEM_MDDR_LIKE_RULE>  (59) 
1

>  <JCHEM_NUMBER_OF_RINGS>  (59) 
3

>  <JCHEM_PHYSIOLOGICAL_CHARGE>  (59) 
0

>  <JCHEM_PKA>  (59) 
15.13038811042912

>  <JCHEM_PKA_STRONGEST_ACIDIC>  (59) 
9.63863186879247

>  <JCHEM_PKA_STRONGEST_BASIC>  (59) 
5.47950494930864

>  <JCHEM_POLAR_SURFACE_AREA>  (59) 
146.35000000000002

>  <JCHEM_REFRACTIVITY>  (59) 
126.56619999999998

>  <JCHEM_ROTATABLE_BOND_COUNT>  (59) 
11

>  <JCHEM_RULE_OF_FIVE>  (59) 
1

>  <JCHEM_TRADITIONAL_IUPAC>  (59) 
ximelagatran

>  <JCHEM_VEBER_RULE>  (59) 
0

>  <MOLECULAR_WEIGHT>  (59) 
473.5652

>  <PRODUCTS>  (59) 
nan

>  <SALTS>  (59) 
nan

>  <SECONDARY_ACCESSION_NUMBERS>  (59) 
nan

>  <SMILES>  (59) 
CCOC(=O)CN[C@@H](C(=O)N1CC[C@H]1C(=O)NCC1=CC=C(C=C1)C(\N)=N\O)C1CCCCC1

>  <SYNONYMS>  (59) 
ethyl 2-[[(1R)-1-cyclohexyl-2- [(2S)-2-[[4-(N'-hydroxycarbamimidoyl) phenyl]methylcarbamoyl]azetidin-1-yl]- 2-oxo-ethyl]amino]acetate; Ximelagatran; Ximélagatran; Ximelagatrán; Ximelagatranum

>  <ECFP_FP>  (59) 
<rdkit.DataStructs.cDataStructs.ExplicitBitVect object at 0xa269bf760>

>  <pki_G>  (59) 
5.915179

>  <pki_D>  (59) 
5.875229

>  <pki_B>  (59) 
5.387398

>  <pki_A>  (59) 
6.042691

>  <SelB>  (59) 
0.527781

>  <SelA>  (59) 
-0.127512

>  <SelD>  (59) 
0.03995

>  <AvgABSel>  (59) 
0.200134

>  <MACCS_FP>  (59) 
[0. 0. 0. 0. 0. 0. 0. 0. 1. 0. 0. 1. 0. 0. 0. 0. 0. 0. 0. 0. 0. 0. 0. 0.
 1. 0. 0. 0. 0. 0. 0. 0. 0. 0. 0. 0. 0. 0. 1. 0. 0. 0. 0. 0. 0. 0. 0. 0.
 0. 0. 0. 0. 0. 0. 1. 0. 0. 0. 0. 0. 0. 0. 0. 0. 0. 0. 0. 0. 0. 1. 0. 1.
 0. 0. 0. 1. 0. 1. 1. 1. 0. 0. 1. 0. 1. 1. 0. 0. 0. 0. 1. 1. 1. 0. 1. 1.
 0. 0. 0. 0. 1. 0. 1. 0. 0. 0. 0. 0. 1. 1. 1. 1. 0. 0. 1. 0. 0. 1. 1. 1.
 0. 1. 1. 1. 1. 0. 1. 0. 1. 1. 0. 1. 1. 0. 0. 0. 1. 1. 1. 1. 1. 0. 1. 0.
 0. 1. 1. 1. 1. 0. 1. 1. 0. 1. 1. 1. 1. 1. 1. 1. 1. 1. 1. 1. 1. 1. 0.]

>  <MACCS_pki_G>  (59) 
5.766654

>  <MACCS_pki_D>  (59) 
5.757102

>  <MACCS_pki_B>  (59) 
5.636253

>  <MACCS_pki_A>  (59) 
5.634802

>  <MACCS_SelB>  (59) 
0.130401

>  <MACCS_SelA>  (59) 
0.131853

>  <MACCS_SelD>  (59) 
0.009552

>  <MACCSAvgABSel>  (59) 
0.131127

>  <Pharm2D_FP>  (59) 
[0. 0. 0. ... 0. 0. 0.]

>  <Pharm2D_pki_G>  (59) 
6.306306

>  <Pharm2D_pki_D>  (59) 
5.727924

>  <Pharm2D_pki_B>  (59) 
5.605858

>  <Pharm2D_pki_A>  (59) 
5.729738

>  <Pharm2D_SelB>  (59) 
0.700448

>  <Pharm2D_SelA>  (59) 
0.576568

>  <Pharm2D_SelD>  (59) 
0.578382

>  <Pharm2DAvgABSel>  (59) 
0.638508

>  <QED>  (59) 
0.130809

$$$$
DB11878
     RDKit          2D

 37 41  0  0  1  0  0  0  0  0999 V2000
   -4.9395   -4.1865    0.0000 C   0  0  0  0  0  0  0  0  0  0  0  0
   -5.9169   -1.5010    0.0000 C   0  0  0  0  0  0  0  0  0  0  0  0
    4.0668    2.3479    0.0000 C   0  0  0  0  0  0  0  0  0  0  0  0
    2.6378   -0.1271    0.0000 C   0  0  0  0  0  0  0  0  0  0  0  0
   -4.1642   -3.9044    0.0000 C   0  0  0  0  0  0  0  0  0  0  0  0
   -5.1417   -1.2188    0.0000 C   0  0  0  0  0  0  0  0  0  0  0  0
   -1.4512   -2.7548    0.0000 C   0  0  0  0  0  0  0  0  0  0  0  0
   -0.6388   -2.6116    0.0000 C   0  0  0  0  0  0  0  0  0  0  0  0
   -1.8385   -2.0264    0.0000 C   0  0  0  0  0  0  0  0  0  0  0  0
   -0.5239   -1.7946    0.0000 C   0  0  0  0  0  0  0  0  0  0  0  0
   -2.3272   -1.7151    0.0000 C   0  0  0  0  0  0  0  0  0  0  0  0
   -2.1839   -0.9026    0.0000 C   0  0  0  0  0  0  0  0  0  0  0  0
    3.3523    1.1104    0.0000 C   0  0  0  0  0  0  0  0  0  0  0  0
   -3.2457   -2.8097    0.0000 C   0  0  0  0  0  0  0  0  0  0  0  0
   -3.7344   -1.4670    0.0000 C   0  0  0  0  0  0  0  0  0  0  0  0
   -0.1712    1.5229    0.0000 C   0  0  0  0  0  0  0  0  0  0  0  0
   -0.5837   -0.6205    0.0000 C   0  0  0  0  0  0  0  0  0  0  0  0
    3.3523    1.9354    0.0000 C   0  0  0  0  0  0  0  0  0  0  0  0
    2.6378    0.6979    0.0000 C   0  0  0  0  0  0  0  0  0  0  0  0
   -3.1025   -1.9973    0.0000 C   0  0  0  0  0  0  0  0  0  0  0  0
   -1.2654   -1.4329    0.0000 C   0  0  0  0  0  0  0  0  0  0  0  0
   -4.0210   -3.0919    0.0000 C   0  0  0  0  0  0  0  0  0  0  0  0
   -4.5097   -1.7491    0.0000 C   0  0  0  0  0  0  0  0  0  0  0  0
   -0.5837    0.8085    0.0000 C   0  0  0  0  0  0  0  0  0  0  0  0
   -0.1712    0.0940    0.0000 C   0  0  0  0  0  0  0  0  0  0  0  0
    0.6538    1.5229    0.0000 C   0  0  0  0  0  0  0  0  0  0  0  0
   -1.4087    0.8085    0.0000 C   0  0  0  0  0  0  0  0  0  0  0  0
    1.9233    1.9354    0.0000 C   0  0  0  0  0  0  0  0  0  0  0  0
   -1.4087   -0.6205    0.0000 C   0  0  0  0  0  0  0  0  0  0  0  0
    2.6378    2.3479    0.0000 N   0  0  0  0  0  0  0  0  0  0  0  0
   -4.6529   -2.5616    0.0000 N   0  0  0  0  0  0  0  0  0  0  0  0
    1.1387    2.1904    0.0000 N   0  0  0  0  0  0  0  0  0  0  0  0
    1.1387    0.8555    0.0000 N   0  0  0  0  0  0  0  0  0  0  0  0
    1.9233    1.1104    0.0000 N   0  0  0  0  0  0  0  0  0  0  0  0
    0.6538    0.0940    0.0000 O   0  0  0  0  0  0  0  0  0  0  0  0
   -1.8212    1.5229    0.0000 O   0  0  0  0  0  0  0  0  0  0  0  0
   -1.8212    0.0940    0.0000 O   0  0  0  0  0  0  0  0  0  0  0  0
  5  1  1  0
  6  2  1  0
  8  7  1  0
  9  7  1  0
 10  8  1  0
 12 11  1  0
 18  3  1  0
 18 13  1  0
 19  4  1  0
 19 13  2  0
 20 11  1  0
 20 14  2  0
 20 15  1  0
 21  9  1  0
 21 10  1  0
 22  5  1  0
 22 14  1  0
 23  6  1  0
 23 15  2  0
 24 16  1  0
 25 17  1  0
 25 24  2  0
 26 16  1  0
 27 24  1  0
 29 12  1  1
 29 17  1  0
 29 21  1  0
 30 18  2  0
 30 28  1  0
 31 22  2  0
 31 23  1  0
 32 26  1  0
 32 28  2  0
 33 26  2  0
 34 19  1  0
 34 28  1  0
 34 33  1  0
 35 25  1  0
 36 27  2  0
 37 27  1  0
 37 29  1  0
M  END
>  <ALOGPS_LOGP>  (60) 
5.13

>  <ALOGPS_LOGS>  (60) 
-4.68

>  <ALOGPS_SOLUBILITY>  (60) 
1.04e-02 g/l

>  <DATABASE_NAME>  (60) 
drugbank

>  <DRUGBANK_ID>  (60) 
DB11878

>  <DRUG_GROUPS>  (60) 
investigational

>  <EXACT_MASS>  (60) 
503.289640075

>  <FORMULA>  (60) 
C29H37N5O3

>  <GENERIC_NAME>  (60) 
Filibuvir

>  <ID>  (60) 


>  <INCHI_IDENTIFIER>  (60) 
InChI=1S/C29H37N5O3/c1-5-22-14-20(15-23(6-2)31-22)11-12-29(21-9-7-8-10-21)17-25(35)24(27(36)37-29)16-26-32-28-30-18(3)13-19(4)34(28)33-26/h13-15,21,35H,5-12,16-17H2,1-4H3/t29-/m1/s1

>  <INCHI_KEY>  (60) 
SLVAPEZTBDBAPI-GDLZYMKVSA-N

>  <INTERNATIONAL_BRANDS>  (60) 
nan

>  <JCHEM_ACCEPTOR_COUNT>  (60) 
6

>  <JCHEM_ATOM_COUNT>  (60) 
nan

>  <JCHEM_AVERAGE_POLARIZABILITY>  (60) 
56.99301646080645

>  <JCHEM_BIOAVAILABILITY>  (60) 
1

>  <JCHEM_DONOR_COUNT>  (60) 
1

>  <JCHEM_FORMAL_CHARGE>  (60) 
0

>  <JCHEM_GHOSE_FILTER>  (60) 
0

>  <JCHEM_IUPAC>  (60) 
(6R)-6-cyclopentyl-6-[2-(2,6-diethylpyridin-4-yl)ethyl]-3-({5,7-dimethyl-[1,2,4]triazolo[1,5-a]pyrimidin-2-yl}methyl)-4-hydroxy-5,6-dihydro-2H-pyran-2-one

>  <JCHEM_LOGP>  (60) 
4.854815312547141

>  <JCHEM_MDDR_LIKE_RULE>  (60) 
1

>  <JCHEM_NUMBER_OF_RINGS>  (60) 
5

>  <JCHEM_PHYSIOLOGICAL_CHARGE>  (60) 
-1

>  <JCHEM_PKA>  (60) 
nan

>  <JCHEM_PKA_STRONGEST_ACIDIC>  (60) 
7.026546128461788

>  <JCHEM_PKA_STRONGEST_BASIC>  (60) 
6.039481570857374

>  <JCHEM_POLAR_SURFACE_AREA>  (60) 
102.50000000000001

>  <JCHEM_REFRACTIVITY>  (60) 
154.90770000000003

>  <JCHEM_ROTATABLE_BOND_COUNT>  (60) 
8

>  <JCHEM_RULE_OF_FIVE>  (60) 
0

>  <JCHEM_TRADITIONAL_IUPAC>  (60) 
(6R)-6-cyclopentyl-6-[2-(2,6-diethylpyridin-4-yl)ethyl]-3-({5,7-dimethyl-[1,2,4]triazolo[1,5-a]pyrimidin-2-yl}methyl)-4-hydroxy-5H-pyran-2-one

>  <JCHEM_VEBER_RULE>  (60) 
0

>  <MOLECULAR_WEIGHT>  (60) 
503.6358

>  <PRODUCTS>  (60) 
nan

>  <SALTS>  (60) 
nan

>  <SECONDARY_ACCESSION_NUMBERS>  (60) 
nan

>  <SMILES>  (60) 
CCC1=CC(CC[C@@]2(CC(O)=C(CC3=NN4C(=N3)N=C(C)C=C4C)C(=O)O2)C2CCCC2)=CC(CC)=N1

>  <SYNONYMS>  (60) 
nan

>  <ECFP_FP>  (60) 
<rdkit.DataStructs.cDataStructs.ExplicitBitVect object at 0xa26bed1c0>

>  <pki_G>  (60) 
5.912414

>  <pki_D>  (60) 
5.744468

>  <pki_B>  (60) 
5.304747

>  <pki_A>  (60) 
5.589718

>  <SelB>  (60) 
0.607667

>  <SelA>  (60) 
0.322696

>  <SelD>  (60) 
0.167947

>  <AvgABSel>  (60) 
0.465181

>  <MACCS_FP>  (60) 
[0. 0. 0. 0. 0. 0. 0. 0. 0. 0. 0. 0. 0. 0. 0. 0. 0. 0. 0. 0. 0. 0. 0. 0.
 0. 1. 0. 0. 0. 0. 0. 0. 0. 0. 0. 0. 0. 0. 1. 0. 0. 0. 0. 0. 0. 0. 0. 0.
 0. 0. 1. 0. 1. 0. 0. 0. 0. 1. 0. 0. 0. 0. 1. 0. 0. 1. 1. 0. 0. 0. 0. 0.
 0. 0. 0. 0. 1. 1. 0. 1. 1. 0. 0. 1. 0. 0. 0. 0. 0. 1. 1. 1. 0. 0. 1. 0.
 1. 0. 1. 1. 0. 1. 0. 0. 1. 1. 1. 0. 0. 0. 0. 1. 1. 0. 1. 0. 0. 0. 1. 0.
 1. 1. 1. 1. 1. 1. 0. 1. 1. 1. 0. 0. 1. 0. 0. 0. 0. 1. 0. 1. 0. 1. 1. 1.
 0. 1. 1. 1. 1. 1. 1. 0. 1. 0. 1. 1. 1. 1. 0. 1. 1. 1. 1. 1. 1. 1. 0.]

>  <MACCS_pki_G>  (60) 
6.0371

>  <MACCS_pki_D>  (60) 
6.25285

>  <MACCS_pki_B>  (60) 
5.668702

>  <MACCS_pki_A>  (60) 
5.909568

>  <MACCS_SelB>  (60) 
0.368398

>  <MACCS_SelA>  (60) 
0.127532

>  <MACCS_SelD>  (60) 
-0.215749

>  <MACCSAvgABSel>  (60) 
0.247965

>  <Pharm2D_FP>  (60) 
[0. 0. 0. ... 0. 0. 0.]

>  <Pharm2D_pki_G>  (60) 
6.564301

>  <Pharm2D_pki_D>  (60) 
5.896329

>  <Pharm2D_pki_B>  (60) 
5.431284

>  <Pharm2D_pki_A>  (60) 
5.622652

>  <Pharm2D_SelB>  (60) 
1.133018

>  <Pharm2D_SelA>  (60) 
0.94165

>  <Pharm2D_SelD>  (60) 
0.667973

>  <Pharm2DAvgABSel>  (60) 
1.037334

>  <QED>  (60) 
0.42546

$$$$
DB02859
     RDKit          2D

 37 39  0  0  1  0  0  0  0  0999 V2000
    2.4084    3.7860    0.0000 C   0  0  0  0  0  0  0  0  0  0  0  0
    1.5440    2.6481    0.0000 C   0  0  0  0  0  0  0  0  0  0  0  0
    4.9324    0.9713    0.0000 C   0  0  0  0  0  0  0  0  0  0  0  0
    6.7649    4.0654    0.0000 C   0  0  0  0  0  0  0  0  0  0  0  0
    6.1080    4.5645    0.0000 C   0  0  0  0  0  0  0  0  0  0  0  0
    1.8898   -0.3063    0.0000 C   0  0  0  0  0  0  0  0  0  0  0  0
    7.4564   -1.8434    0.0000 C   0  0  0  0  0  0  0  0  0  0  0  0
    7.5602   -1.0249    0.0000 C   0  0  0  0  0  0  0  0  0  0  0  0
    6.6958   -2.1628    0.0000 C   0  0  0  0  0  0  0  0  0  0  0  0
    6.3500    0.7916    0.0000 C   0  0  0  0  0  0  0  0  0  0  0  0
    6.4538    1.6101    0.0000 C   0  0  0  0  0  0  0  0  0  0  0  0
    6.9032   -0.5259    0.0000 C   0  0  0  0  0  0  0  0  0  0  0  0
    6.0388   -1.6637    0.0000 C   0  0  0  0  0  0  0  0  0  0  0  0
    5.5894    0.4722    0.0000 C   0  0  0  0  0  0  0  0  0  0  0  0
    5.7968    2.1091    0.0000 C   0  0  0  0  0  0  0  0  0  0  0  0
    3.8260    3.6063    0.0000 C   0  0  0  0  0  0  0  0  0  0  0  0
    4.4829    3.1072    0.0000 C   0  0  0  0  0  0  0  0  0  0  0  0
    3.0653    3.2869    0.0000 C   0  0  0  0  0  0  0  0  0  0  0  0
    2.2009    2.1491    0.0000 C   0  0  0  0  0  0  0  0  0  0  0  0
    4.1718    0.6519    0.0000 C   0  0  0  0  0  0  0  0  0  0  0  0
    6.1426   -0.8453    0.0000 C   0  0  0  0  0  0  0  0  0  0  0  0
    5.4856   -0.3462    0.0000 C   0  0  0  0  0  0  0  0  0  0  0  0
    5.9005    2.9276    0.0000 C   0  0  0  0  0  0  0  0  0  0  0  0
    5.2436    3.4266    0.0000 C   0  0  0  0  0  0  0  0  0  0  0  0
    2.0972    1.3306    0.0000 C   0  0  0  0  0  0  0  0  0  0  0  0
    2.9616    2.4685    0.0000 C   0  0  0  0  0  0  0  0  0  0  0  0
    2.7542    0.8315    0.0000 C   0  0  0  0  0  0  0  0  0  0  0  0
    4.0680   -0.1666    0.0000 C   0  0  0  0  0  0  0  0  0  0  0  0
    3.5148    1.1509    0.0000 C   0  0  0  0  0  0  0  0  0  0  0  0
    1.3366    1.0112    0.0000 O   0  0  0  0  0  0  0  0  0  0  0  0
    3.3074   -0.4860    0.0000 O   0  0  0  0  0  0  0  0  0  0  0  0
    3.4111    0.3325    0.0000 O   0  0  0  0  0  0  0  0  0  0  0  0
    6.6612    3.2470    0.0000 O   0  0  0  0  0  0  0  0  0  0  0  0
    5.3473    4.2451    0.0000 O   0  0  0  0  0  0  0  0  0  0  0  0
    2.6504    0.0131    0.0000 O   0  0  0  0  0  0  0  0  0  0  0  0
    4.7250   -0.6656    0.0000 O   0  0  0  0  0  0  0  0  0  0  0  0
    3.6185    1.9694    0.0000 O   0  0  0  0  0  0  0  0  0  0  0  0
  8  7  2  0
  9  7  1  0
 11 10  1  0
 12  8  1  0
 13  9  2  0
 14 10  1  0
 15 11  1  0
 17 16  2  0
 18  1  1  1
 18 16  1  0
 19  2  1  6
 20  3  1  6
 21 12  2  0
 21 13  1  0
 22 14  1  0
 22 21  1  1
 23 15  1  0
 24 17  1  0
 24 23  1  0
 25 19  1  0
 26 18  1  0
 26 19  1  0
 27 25  1  0
 28 20  1  0
 29 20  1  0
 29 27  1  0
 25 30  1  1
 31 28  2  0
 29 32  1  1
 33  4  1  0
 23 33  1  1
 34  5  1  0
 24 34  1  1
 35  6  1  0
 27 35  1  6
 36 22  1  0
 36 28  1  0
 26 37  1  6
 37 29  1  0
M  END
>  <ALOGPS_LOGP>  (61) 
3.67

>  <ALOGPS_LOGS>  (61) 
-4.75

>  <ALOGPS_SOLUBILITY>  (61) 
9.16e-03 g/l

>  <DATABASE_NAME>  (61) 
drugbank

>  <DRUGBANK_ID>  (61) 
DB02859

>  <DRUG_GROUPS>  (61) 
experimental

>  <EXACT_MASS>  (61) 
520.303618384

>  <FORMULA>  (61) 
C29H44O8

>  <GENERIC_NAME>  (61) 
Soraphen A

>  <ID>  (61) 


>  <INCHI_IDENTIFIER>  (61) 
InChI=1S/C29H44O8/c1-18-16-17-24(34-5)23(33-4)15-11-10-14-22(21-12-8-7-9-13-21)36-28(31)20(3)29(32)27(35-6)25(30)19(2)26(18)37-29/h7-9,12-13,16-20,22-27,30,32H,10-11,14-15H2,1-6H3/b17-16+/t18-,19-,20+,22-,23-,24+,25-,26-,27+,29+/m0/s1

>  <INCHI_KEY>  (61) 
WPMGNXPRKGXGBO-OFQQMTDKSA-N

>  <INTERNATIONAL_BRANDS>  (61) 
nan

>  <JCHEM_ACCEPTOR_COUNT>  (61) 
7

>  <JCHEM_ATOM_COUNT>  (61) 
nan

>  <JCHEM_AVERAGE_POLARIZABILITY>  (61) 
57.91888355457911

>  <JCHEM_BIOAVAILABILITY>  (61) 
1

>  <JCHEM_DONOR_COUNT>  (61) 
2

>  <JCHEM_FORMAL_CHARGE>  (61) 
0

>  <JCHEM_GHOSE_FILTER>  (61) 
0

>  <JCHEM_IUPAC>  (61) 
(1R,2S,5S,10S,11R,12E,14S,15S,16S,17S,18R)-1,17-dihydroxy-10,11,18-trimethoxy-2,14,16-trimethyl-5-phenyl-4,19-dioxabicyclo[13.3.1]nonadec-12-en-3-one

>  <JCHEM_LOGP>  (61) 
4.494098699

>  <JCHEM_MDDR_LIKE_RULE>  (61) 
0

>  <JCHEM_NUMBER_OF_RINGS>  (61) 
3

>  <JCHEM_PHYSIOLOGICAL_CHARGE>  (61) 
0

>  <JCHEM_PKA>  (61) 
13.815801385127639

>  <JCHEM_PKA_STRONGEST_ACIDIC>  (61) 
10.601558222358586

>  <JCHEM_PKA_STRONGEST_BASIC>  (61) 
-3.3638011722151306

>  <JCHEM_POLAR_SURFACE_AREA>  (61) 
103.68000000000002

>  <JCHEM_REFRACTIVITY>  (61) 
139.9352

>  <JCHEM_ROTATABLE_BOND_COUNT>  (61) 
4

>  <JCHEM_RULE_OF_FIVE>  (61) 
0

>  <JCHEM_TRADITIONAL_IUPAC>  (61) 
soraphen A(1α)

>  <JCHEM_VEBER_RULE>  (61) 
0

>  <MOLECULAR_WEIGHT>  (61) 
520.6549

>  <PRODUCTS>  (61) 
nan

>  <SALTS>  (61) 
nan

>  <SECONDARY_ACCESSION_NUMBERS>  (61) 
EXPT02829

>  <SMILES>  (61) 
[H]\C1=C([H])/[C@@]([H])(OC)[C@]([H])(CCCC[C@]([H])(OC(=O)[C@@]([H])(C)[C@@]2(O)O[C@]([H])([C@@]([H])(C)[C@]([H])(O)[C@@]2([H])OC)[C@@]1([H])C)C1=CC=CC=C1)OC

>  <SYNONYMS>  (61) 
nan

>  <ECFP_FP>  (61) 
<rdkit.DataStructs.cDataStructs.ExplicitBitVect object at 0xa26777a80>

>  <pki_G>  (61) 
5.906725

>  <pki_D>  (61) 
6.000691

>  <pki_B>  (61) 
5.36074

>  <pki_A>  (61) 
5.486794

>  <SelB>  (61) 
0.545985

>  <SelA>  (61) 
0.419932

>  <SelD>  (61) 
-0.093966

>  <AvgABSel>  (61) 
0.482958

>  <MACCS_FP>  (61) 
[0. 0. 0. 0. 0. 0. 0. 0. 0. 0. 0. 0. 0. 0. 0. 0. 0. 0. 0. 0. 0. 0. 0. 0.
 0. 0. 0. 0. 0. 0. 0. 0. 0. 0. 0. 0. 0. 0. 0. 0. 0. 0. 0. 0. 0. 0. 0. 0.
 0. 0. 0. 0. 0. 1. 0. 0. 0. 1. 0. 0. 0. 0. 1. 0. 0. 0. 0. 0. 0. 0. 0. 0.
 1. 0. 0. 0. 0. 0. 0. 0. 0. 0. 0. 0. 0. 0. 0. 0. 0. 1. 0. 0. 0. 1. 0. 0.
 0. 0. 1. 1. 0. 0. 0. 0. 0. 1. 0. 0. 1. 0. 0. 0. 1. 0. 0. 0. 1. 0. 1. 0.
 1. 0. 0. 1. 0. 0. 1. 1. 0. 1. 0. 1. 1. 0. 0. 0. 0. 1. 0. 1. 1. 1. 0. 1.
 0. 1. 1. 1. 0. 1. 1. 0. 1. 0. 1. 0. 0. 1. 0. 1. 1. 0. 1. 1. 1. 1. 0.]

>  <MACCS_pki_G>  (61) 
5.809446

>  <MACCS_pki_D>  (61) 
5.836694

>  <MACCS_pki_B>  (61) 
5.680131

>  <MACCS_pki_A>  (61) 
5.56277

>  <MACCS_SelB>  (61) 
0.129314

>  <MACCS_SelA>  (61) 
0.246676

>  <MACCS_SelD>  (61) 
-0.027248

>  <MACCSAvgABSel>  (61) 
0.187995

>  <Pharm2D_FP>  (61) 
[0. 0. 0. ... 0. 0. 0.]

>  <Pharm2D_pki_G>  (61) 
6.134715

>  <Pharm2D_pki_D>  (61) 
5.565247

>  <Pharm2D_pki_B>  (61) 
5.363513

>  <Pharm2D_pki_A>  (61) 
5.621993

>  <Pharm2D_SelB>  (61) 
0.771202

>  <Pharm2D_SelA>  (61) 
0.512722

>  <Pharm2D_SelD>  (61) 
0.569467

>  <Pharm2DAvgABSel>  (61) 
0.641962

>  <QED>  (61) 
0.456499

$$$$
DB00798
     RDKit          2D

 33 35  0  0  1  0  0  0  0  0999 V2000
    4.9509   -1.9904    0.0000 O   0  0  0  0  0  0  0  0  0  0  0  0
    6.3799    0.4847    0.0000 O   0  0  0  0  0  0  0  0  0  0  0  0
    4.9509   -0.3403    0.0000 O   0  0  0  0  0  0  0  0  0  0  0  0
    4.2365   -0.7528    0.0000 O   0  0  0  0  0  0  0  0  0  0  0  0
    7.6175    1.1992    0.0000 O   0  0  0  0  0  0  0  0  0  0  0  0
    3.5220   -2.8154    0.0000 O   0  0  0  0  0  0  0  0  0  0  0  0
    2.3950   -0.0384    0.0000 O   0  0  0  0  0  0  0  0  0  0  0  0
    6.3799   -2.8154    0.0000 N   0  0  0  0  0  0  0  0  0  0  0  0
    7.9194   -0.7528    0.0000 N   0  0  0  0  0  0  0  0  0  0  0  0
    2.0930   -1.9904    0.0000 N   0  0  0  0  0  0  0  0  0  0  0  0
    5.5549    1.9136    0.0000 N   0  0  0  0  0  0  0  0  0  0  0  0
    9.2675    2.6282    0.0000 N   0  0  0  0  0  0  0  0  0  0  0  0
    5.6655   -1.5778    0.0000 C   0  0  0  0  0  0  0  0  0  0  0  0
    6.3799   -0.3403    0.0000 C   0  0  0  0  0  0  0  0  0  0  0  0
    5.6655   -0.7528    0.0000 C   0  0  0  0  0  0  0  0  0  0  0  0
    6.3799   -1.9904    0.0000 C   0  0  0  0  0  0  0  0  0  0  0  0
    7.0944   -0.7528    0.0000 C   0  0  0  0  0  0  0  0  0  0  0  0
    7.0944   -1.5778    0.0000 C   0  0  0  0  0  0  0  0  0  0  0  0
    4.2365   -1.5778    0.0000 C   0  0  0  0  0  0  0  0  0  0  0  0
    2.8075   -1.5778    0.0000 C   0  0  0  0  0  0  0  0  0  0  0  0
    3.5220   -1.9904    0.0000 C   0  0  0  0  0  0  0  0  0  0  0  0
    6.7925    1.1992    0.0000 C   0  0  0  0  0  0  0  0  0  0  0  0
    2.8075   -0.7528    0.0000 C   0  0  0  0  0  0  0  0  0  0  0  0
    6.3799    1.9136    0.0000 C   0  0  0  0  0  0  0  0  0  0  0  0
    8.0300    1.9136    0.0000 C   0  0  0  0  0  0  0  0  0  0  0  0
    6.7925    2.6282    0.0000 C   0  0  0  0  0  0  0  0  0  0  0  0
    3.5220   -0.3403    0.0000 C   0  0  0  0  0  0  0  0  0  0  0  0
    7.6175    2.6282    0.0000 C   0  0  0  0  0  0  0  0  0  0  0  0
    8.8550    1.9136    0.0000 C   0  0  0  0  0  0  0  0  0  0  0  0
    1.9825   -0.7528    0.0000 C   0  0  0  0  0  0  0  0  0  0  0  0
    9.2675    1.1992    0.0000 C   0  0  0  0  0  0  0  0  0  0  0  0
    2.0930   -2.8154    0.0000 C   0  0  0  0  0  0  0  0  0  0  0  0
   10.0925    2.6282    0.0000 C   0  0  0  0  0  0  0  0  0  0  0  0
  1 13  1  0
  1 19  1  0
  2 14  1  0
  2 22  1  0
  3 15  1  0
  4 19  1  0
  4 27  1  0
  5 22  1  0
  5 25  1  0
  6 21  1  0
  7 23  1  0
  8 16  1  0
  9 17  1  0
 10 20  1  0
 10 32  1  0
 11 24  1  0
 12 29  1  0
 12 33  1  0
 13 15  1  0
 13 16  1  0
 14 15  1  0
 14 17  1  0
 16 18  1  0
 17 18  1  0
 19 21  1  0
 20 21  1  0
 20 23  1  0
 22 24  1  0
 23 27  1  0
 23 30  1  0
 24 26  1  0
 25 28  1  0
 25 29  1  0
 26 28  1  0
 29 31  1  0
M  END
>  <ALOGPS_LOGP>  (62) 
-1.64

>  <ALOGPS_LOGS>  (62) 
-1.58

>  <ALOGPS_SOLUBILITY>  (62) 
1.26e+01 g/l

>  <DATABASE_NAME>  (62) 
drugbank

>  <DRUGBANK_ID>  (62) 
DB00798

>  <DRUG_GROUPS>  (62) 
approved; vet_approved

>  <EXACT_MASS>  (62) 
477.316248755

>  <FORMULA>  (62) 
C21H43N5O7

>  <GENERIC_NAME>  (62) 
Gentamicin

>  <ID>  (62) 
798

>  <INCHI_IDENTIFIER>  (62) 
InChI=1S/C21H43N5O7/c1-9(25-3)13-6-5-10(22)19(31-13)32-16-11(23)7-12(24)17(14(16)27)33-20-15(28)18(26-4)21(2,29)8-30-20/h9-20,25-29H,5-8,22-24H2,1-4H3

>  <INCHI_KEY>  (62) 
CEAZRRDELHUEMR-UHFFFAOYSA-N

>  <INTERNATIONAL_BRANDS>  (62) 
Alcomicin; Bristagen; G-Mycin; Genoptic; Gentacidin; Gentafair; Gentamar; Jenamicin; Ocu-Mycin; Spectro-Genta; U-gencin

>  <JCHEM_ACCEPTOR_COUNT>  (62) 
12

>  <JCHEM_ATOM_COUNT>  (62) 
nan

>  <JCHEM_AVERAGE_POLARIZABILITY>  (62) 
51.923795808054095

>  <JCHEM_BIOAVAILABILITY>  (62) 
0

>  <JCHEM_DONOR_COUNT>  (62) 
8

>  <JCHEM_FORMAL_CHARGE>  (62) 
0

>  <JCHEM_GHOSE_FILTER>  (62) 
0

>  <JCHEM_IUPAC>  (62) 
2-{[4,6-diamino-3-({3-amino-6-[1-(methylamino)ethyl]oxan-2-yl}oxy)-2-hydroxycyclohexyl]oxy}-5-methyl-4-(methylamino)oxane-3,5-diol

>  <JCHEM_LOGP>  (62) 
-3.1371555293333344

>  <JCHEM_MDDR_LIKE_RULE>  (62) 
1

>  <JCHEM_NUMBER_OF_RINGS>  (62) 
3

>  <JCHEM_PHYSIOLOGICAL_CHARGE>  (62) 
5

>  <JCHEM_PKA>  (62) 
13.159419991605812

>  <JCHEM_PKA_STRONGEST_ACIDIC>  (62) 
12.5491782180648

>  <JCHEM_PKA_STRONGEST_BASIC>  (62) 
10.183710185453362

>  <JCHEM_POLAR_SURFACE_AREA>  (62) 
199.73000000000002

>  <JCHEM_REFRACTIVITY>  (62) 
118.02069999999998

>  <JCHEM_ROTATABLE_BOND_COUNT>  (62) 
7

>  <JCHEM_RULE_OF_FIVE>  (62) 
0

>  <JCHEM_TRADITIONAL_IUPAC>  (62) 
gentamicin

>  <JCHEM_VEBER_RULE>  (62) 
0

>  <MOLECULAR_WEIGHT>  (62) 
477.5954

>  <PRODUCTS>  (62) 
Alcomicin Oph Sol 3mg/ml; Amolg A; Betamycin Ophthalmic/otic Solution; Celestone-G; Cidomycin Inj 10mg/ml; Cidomycin Inj 40mg/ml; Cidomycin Inj Pediatric 10mg; Diprogen Cream; Diprogen Ointment; Dom-gentamicin-betamethasone; Garamycin; Garamycin Cream 0.1%; Garamycin Gentamicin Sulfate; Garamycin Inj 10mg/ml Pediatric; Garamycin Inj 40mg/ml; Garamycin Ont 0.1%; Garamycin Ophthalmic Drops 0.3%; Garamycin Ophthalmic Ointment 0.3%; Garamycin Otic Drops 0.3%; Garasone Ophthalmic Ointment; Garasone Ophthalmic and Otic Solution; Garatec Ophthalmic Dps 5mg/ml; Garatec Otic Dps 5mg/ml; Gentacidin Oph Soln 3mg/ml; Gentacidin Ophthalmic Solution 3mg/ml; Gentak; Gentamicin; Gentamicin Injection USP; Gentamicin Sulfate; Gentamicin Sulfate In 0.9% Sodium Chloride Injection; Gentamicin Sulfate In Nacl 0.9% Inj; Gentamicin Sulfate In Nacl O.9% Inj; Gentamicin Sulfate In Sodium Chloride; Gentamicin Sulfate in Sodium Chloride; Gentamicin Sulphate 0.3% - Liq Oph; Gentamicin Sulphate Injection USP-10mg/ml; Gentamicin Sulphate Injection USP-40mg/ml; Gentamicin sulfate; Gentamicin(e) 100mg Liq IV 1mg/ml; Gentamicin(e) 120mg Liq IV 1.2mg/ml; Gentamicin(e) 80mg Liq IV 1.6mg/ml; Gentrasul Liq 3mg/ml; Gentrasul Oph Ointment 3mg/gm; Minims Gentamicin Sulfate 0.3%; Ocugram Liq 3mg/ml; Ocugram Ont 3mg/gm; Odan-gentamicin; PMS-gentamicin Cream 1mg/gm; PMS-gentamicin Ointment 1mg/gm; PMS-gentamicin Ophthalmic Ointment 0.3%; PMS-gentamicin Otic Drops 0.3%; PMS-gentamicin Sulfate Oph Dps 0.3%; PMS-gentamicin-betamethasone; Pred-G; R.O.-gentycin; Ratio-gentamicin; Sandoz Gentamicin; Sandoz Pentasone; Septopal; Valisone-G Cream; Valisone-G Ointment

>  <SALTS>  (62) 
Gentamicin sulfate

>  <SECONDARY_ACCESSION_NUMBERS>  (62) 
APRD00214

>  <SMILES>  (62) 
CNC(C)C1CCC(N)C(OC2C(N)CC(N)C(OC3OCC(C)(O)C(NC)C3O)C2O)O1

>  <SYNONYMS>  (62) 
Gentamicin; Gentamicina

>  <ECFP_FP>  (62) 
<rdkit.DataStructs.cDataStructs.ExplicitBitVect object at 0xa2662c8a0>

>  <pki_G>  (62) 
5.903515

>  <pki_D>  (62) 
6.025086

>  <pki_B>  (62) 
5.494016

>  <pki_A>  (62) 
5.428902

>  <SelB>  (62) 
0.4095

>  <SelA>  (62) 
0.474613

>  <SelD>  (62) 
-0.121571

>  <AvgABSel>  (62) 
0.442056

>  <MACCS_FP>  (62) 
[0. 0. 0. 0. 0. 0. 0. 0. 0. 0. 0. 0. 0. 0. 0. 0. 0. 0. 0. 0. 0. 0. 0. 0.
 0. 0. 0. 0. 0. 0. 0. 0. 0. 0. 0. 0. 0. 0. 0. 0. 0. 0. 0. 0. 0. 0. 0. 0.
 0. 0. 0. 0. 0. 1. 1. 0. 0. 1. 0. 0. 0. 0. 0. 0. 0. 0. 1. 0. 0. 0. 0. 0.
 1. 0. 0. 0. 0. 0. 0. 0. 1. 0. 0. 0. 1. 0. 0. 0. 0. 1. 1. 1. 0. 1. 0. 1.
 0. 1. 1. 0. 0. 0. 0. 0. 1. 0. 0. 0. 1. 1. 0. 1. 1. 0. 0. 1. 1. 0. 1. 0.
 1. 0. 0. 1. 0. 0. 1. 1. 0. 0. 0. 1. 1. 1. 0. 0. 0. 1. 0. 1. 1. 1. 1. 1.
 0. 1. 1. 1. 0. 1. 1. 1. 1. 1. 0. 0. 1. 1. 1. 1. 1. 1. 0. 1. 1. 1. 0.]

>  <MACCS_pki_G>  (62) 
6.182877

>  <MACCS_pki_D>  (62) 
5.890253

>  <MACCS_pki_B>  (62) 
6.140952

>  <MACCS_pki_A>  (62) 
6.01025

>  <MACCS_SelB>  (62) 
0.041925

>  <MACCS_SelA>  (62) 
0.172627

>  <MACCS_SelD>  (62) 
0.292624

>  <MACCSAvgABSel>  (62) 
0.107276

>  <Pharm2D_FP>  (62) 
[0. 0. 0. ... 0. 0. 0.]

>  <Pharm2D_pki_G>  (62) 
6.586306

>  <Pharm2D_pki_D>  (62) 
5.906264

>  <Pharm2D_pki_B>  (62) 
5.694556

>  <Pharm2D_pki_A>  (62) 
5.128721

>  <Pharm2D_SelB>  (62) 
0.89175

>  <Pharm2D_SelA>  (62) 
1.457586

>  <Pharm2D_SelD>  (62) 
0.680043

>  <Pharm2DAvgABSel>  (62) 
1.174668

>  <QED>  (62) 
0.181598

$$$$
DB04967
     RDKit          2D

 24 26  0  0  0  0  0  0  0  0999 V2000
    3.7709   -2.2345    0.0000 S   0  0  0  0  0  0  0  0  0  0  0  0
    3.7709    0.1900    0.0000 O   0  0  0  0  0  0  0  0  0  0  0  0
    6.5649    1.8504    0.0000 N   0  0  0  0  0  0  0  0  0  0  0  0
    5.1839    0.2180    0.0000 N   0  0  0  0  0  0  0  0  0  0  0  0
    5.8698    1.4382    0.0000 C   0  0  0  0  0  0  0  0  0  0  0  0
    5.8791    0.6301    0.0000 C   0  0  0  0  0  0  0  0  0  0  0  0
    5.1932   -0.5901    0.0000 C   0  0  0  0  0  0  0  0  0  0  0  0
    4.4709   -1.0222    0.0000 C   0  0  0  0  0  0  0  0  0  0  0  0
    7.2694    1.4543    0.0000 C   0  0  0  0  0  0  0  0  0  0  0  0
    6.5556    2.6585    0.0000 C   0  0  0  0  0  0  0  0  0  0  0  0
    4.4709   -1.8304    0.0000 C   0  0  0  0  0  0  0  0  0  0  0  0
    5.1932   -2.2625    0.0000 C   0  0  0  0  0  0  0  0  0  0  0  0
    3.7709   -0.6181    0.0000 C   0  0  0  0  0  0  0  0  0  0  0  0
    5.9255   -1.0055    0.0000 C   0  0  0  0  0  0  0  0  0  0  0  0
    3.0710   -1.0222    0.0000 C   0  0  0  0  0  0  0  0  0  0  0  0
    5.9255   -1.8473    0.0000 C   0  0  0  0  0  0  0  0  0  0  0  0
    3.0710   -1.8304    0.0000 C   0  0  0  0  0  0  0  0  0  0  0  0
    7.9647    1.8666    0.0000 C   0  0  0  0  0  0  0  0  0  0  0  0
    7.2508    3.0706    0.0000 C   0  0  0  0  0  0  0  0  0  0  0  0
    5.1839   -3.0706    0.0000 C   0  0  0  0  0  0  0  0  0  0  0  0
    2.3486   -0.5901    0.0000 C   0  0  0  0  0  0  0  0  0  0  0  0
    2.3486   -2.2625    0.0000 C   0  0  0  0  0  0  0  0  0  0  0  0
    1.6164   -1.0055    0.0000 C   0  0  0  0  0  0  0  0  0  0  0  0
    1.6164   -1.8473    0.0000 C   0  0  0  0  0  0  0  0  0  0  0  0
  1 11  1  0
  1 17  1  0
  2 13  2  0
  3  5  1  0
  3  9  1  0
  3 10  1  0
  4  6  1  0
  4  7  1  0
  5  6  1  0
  7  8  1  0
  7 14  2  0
  8 11  2  0
  8 13  1  0
  9 18  1  0
 10 19  1  0
 11 12  1  0
 12 16  2  0
 12 20  1  0
 13 15  1  0
 14 16  1  0
 15 17  2  0
 15 21  1  0
 17 22  1  0
 21 23  2  0
 22 24  2  0
 23 24  1  0
M  END
>  <ALOGPS_LOGP>  (63) 
4.72

>  <ALOGPS_LOGS>  (63) 
-5.03

>  <ALOGPS_SOLUBILITY>  (63) 
3.15e-03 g/l

>  <DATABASE_NAME>  (63) 
drugbank

>  <DRUGBANK_ID>  (63) 
DB04967

>  <DRUG_GROUPS>  (63) 
investigational

>  <EXACT_MASS>  (63) 
340.16093409

>  <FORMULA>  (63) 
C20H24N2OS

>  <GENERIC_NAME>  (63) 
Lucanthone

>  <ID>  (63) 


>  <INCHI_IDENTIFIER>  (63) 
InChI=1S/C20H24N2OS/c1-4-22(5-2)13-12-21-16-11-10-14(3)20-18(16)19(23)15-8-6-7-9-17(15)24-20/h6-11,21H,4-5,12-13H2,1-3H3

>  <INCHI_KEY>  (63) 
FBQPGGIHOFZRGH-UHFFFAOYSA-N

>  <INTERNATIONAL_BRANDS>  (63) 
nan

>  <JCHEM_ACCEPTOR_COUNT>  (63) 
3

>  <JCHEM_ATOM_COUNT>  (63) 
nan

>  <JCHEM_AVERAGE_POLARIZABILITY>  (63) 
39.600377716600136

>  <JCHEM_BIOAVAILABILITY>  (63) 
1

>  <JCHEM_DONOR_COUNT>  (63) 
1

>  <JCHEM_FORMAL_CHARGE>  (63) 
0

>  <JCHEM_GHOSE_FILTER>  (63) 
1

>  <JCHEM_IUPAC>  (63) 
1-{[2-(diethylamino)ethyl]amino}-4-methyl-9H-thioxanthen-9-one

>  <JCHEM_LOGP>  (63) 
5.0165624493333345

>  <JCHEM_MDDR_LIKE_RULE>  (63) 
1

>  <JCHEM_NUMBER_OF_RINGS>  (63) 
3

>  <JCHEM_PHYSIOLOGICAL_CHARGE>  (63) 
1

>  <JCHEM_PKA>  (63) 
nan

>  <JCHEM_PKA_STRONGEST_ACIDIC>  (63) 
18.841315559332447

>  <JCHEM_PKA_STRONGEST_BASIC>  (63) 
8.69395226253895

>  <JCHEM_POLAR_SURFACE_AREA>  (63) 
32.34

>  <JCHEM_REFRACTIVITY>  (63) 
106.01090000000003

>  <JCHEM_ROTATABLE_BOND_COUNT>  (63) 
6

>  <JCHEM_RULE_OF_FIVE>  (63) 
0

>  <JCHEM_TRADITIONAL_IUPAC>  (63) 
lucanthone

>  <JCHEM_VEBER_RULE>  (63) 
1

>  <MOLECULAR_WEIGHT>  (63) 
340.482

>  <PRODUCTS>  (63) 
nan

>  <SALTS>  (63) 
Lucanthone hydrochloride

>  <SECONDARY_ACCESSION_NUMBERS>  (63) 
nan

>  <SMILES>  (63) 
CCN(CC)CCNC1=C2C(=O)C3=CC=CC=C3SC2=C(C)C=C1

>  <SYNONYMS>  (63) 
1-((2-(Diethylamino)ethyl)amino)-4-methylthioxanthen-9-one; 1-{[2-(diethylamino)ethyl]amino}-4-methylthioxanthen-9-one; 1-diethylaminoethylethylamino-4-methyl-thioxanthenone; Lucanthone; Lucanthonum; Lucantona

>  <ECFP_FP>  (63) 
<rdkit.DataStructs.cDataStructs.ExplicitBitVect object at 0xa269c7530>

>  <pki_G>  (63) 
5.901657

>  <pki_D>  (63) 
5.702993

>  <pki_B>  (63) 
5.491184

>  <pki_A>  (63) 
5.367172

>  <SelB>  (63) 
0.410473

>  <SelA>  (63) 
0.534485

>  <SelD>  (63) 
0.198663

>  <AvgABSel>  (63) 
0.472479

>  <MACCS_FP>  (63) 
[0. 0. 0. 0. 0. 0. 0. 0. 0. 0. 0. 0. 0. 0. 0. 0. 0. 0. 0. 0. 0. 0. 0. 0.
 0. 0. 0. 0. 0. 0. 0. 0. 0. 0. 0. 0. 1. 0. 0. 0. 0. 0. 0. 0. 0. 0. 0. 0.
 0. 0. 0. 0. 0. 0. 0. 0. 0. 0. 0. 0. 0. 0. 0. 0. 0. 0. 0. 0. 0. 0. 0. 0.
 0. 0. 0. 0. 0. 0. 0. 1. 0. 1. 1. 0. 0. 1. 1. 0. 1. 0. 0. 1. 0. 0. 0. 0.
 0. 1. 1. 0. 1. 1. 0. 0. 1. 1. 0. 0. 1. 0. 0. 1. 0. 1. 1. 0. 1. 0. 1. 0.
 0. 0. 1. 0. 0. 1. 0. 1. 0. 1. 0. 0. 0. 1. 0. 1. 0. 1. 1. 0. 0. 1. 1. 1.
 0. 1. 0. 1. 1. 1. 0. 1. 1. 1. 1. 1. 1. 0. 1. 0. 1. 1. 1. 1. 1. 1. 0.]

>  <MACCS_pki_G>  (63) 
6.272441

>  <MACCS_pki_D>  (63) 
5.706937

>  <MACCS_pki_B>  (63) 
5.399633

>  <MACCS_pki_A>  (63) 
5.747109

>  <MACCS_SelB>  (63) 
0.872808

>  <MACCS_SelA>  (63) 
0.525332

>  <MACCS_SelD>  (63) 
0.565504

>  <MACCSAvgABSel>  (63) 
0.69907

>  <Pharm2D_FP>  (63) 
[0. 0. 0. ... 0. 0. 0.]

>  <Pharm2D_pki_G>  (63) 
5.801281

>  <Pharm2D_pki_D>  (63) 
5.41896

>  <Pharm2D_pki_B>  (63) 
5.606614

>  <Pharm2D_pki_A>  (63) 
5.48647

>  <Pharm2D_SelB>  (63) 
0.194668

>  <Pharm2D_SelA>  (63) 
0.314811

>  <Pharm2D_SelD>  (63) 
0.382322

>  <Pharm2DAvgABSel>  (63) 
0.25474

>  <QED>  (63) 
0.671718

$$$$
DB03200
     RDKit          2D

 22 24  0  0  1  0  0  0  0  0999 V2000
    2.6378    0.1271    0.0000 C   0  0  0  0  0  0  0  0  0  0  0  0
    1.1387    2.8736    0.0000 C   0  0  0  0  0  0  0  0  0  0  0  0
    3.3523   -1.1104    0.0000 C   0  0  0  0  0  0  0  0  0  0  0  0
    0.6538   -0.6979    0.0000 C   0  0  0  0  0  0  0  0  0  0  0  0
    1.9233   -0.2854    0.0000 C   0  0  0  0  0  0  0  0  0  0  0  0
    0.8838    2.0890    0.0000 C   0  0  0  0  0  0  0  0  0  0  0  0
    0.0992    1.8341    0.0000 C   0  0  0  0  0  0  0  0  0  0  0  0
    0.0992    1.0091    0.0000 C   0  0  0  0  0  0  0  0  0  0  0  0
    1.9233   -1.1104    0.0000 C   0  0  0  0  0  0  0  0  0  0  0  0
    0.8838    0.7541    0.0000 C   0  0  0  0  0  0  0  0  0  0  0  0
    3.3523   -0.2854    0.0000 N   0  0  0  0  0  0  0  0  0  0  0  0
    2.6378   -1.5229    0.0000 N   0  0  0  0  0  0  0  0  0  0  0  0
    1.1387   -1.3654    0.0000 N   0  0  0  0  0  0  0  0  0  0  0  0
    1.1387   -0.0305    0.0000 N   0  0  0  0  0  0  0  0  0  0  0  0
   -0.5683    2.3190    0.0000 O   0  0  0  0  0  0  0  0  0  0  0  0
   -0.5683    0.5241    0.0000 O   0  0  0  0  0  0  0  0  0  0  0  0
    2.4556    4.6144    0.0000 O   0  0  0  0  0  0  0  0  0  0  0  0
    2.9853    3.5748    0.0000 O   0  0  0  0  0  0  0  0  0  0  0  0
    1.4160    4.0847    0.0000 O   0  0  0  0  0  0  0  0  0  0  0  0
    1.9457    3.0451    0.0000 O   0  0  0  0  0  0  0  0  0  0  0  0
    1.3687    1.4216    0.0000 O   0  0  0  0  0  0  0  0  0  0  0  0
    2.2006    3.8298    0.0000 P   0  0  0  0  0  0  0  0  0  0  0  0
  5  1  2  0
  6  2  1  1
  7  6  1  0
  8  7  1  0
  9  5  1  0
 10  8  1  0
 11  1  1  0
 11  3  2  0
 12  3  1  0
 12  9  2  0
 13  4  2  0
 13  9  1  0
 14  4  1  0
 14  5  1  0
 10 14  1  6
  7 15  1  6
  8 16  1  6
 20  2  1  0
 21  6  1  0
 21 10  1  0
 22 17  1  0
 22 18  1  0
 22 19  2  0
 22 20  1  0
M  END
>  <ALOGPS_LOGP>  (64) 
-2.76

>  <ALOGPS_LOGS>  (64) 
-2.01

>  <ALOGPS_SOLUBILITY>  (64) 
3.28e+00 g/l

>  <DATABASE_NAME>  (64) 
drugbank

>  <DRUGBANK_ID>  (64) 
DB03200

>  <DRUG_GROUPS>  (64) 
experimental

>  <EXACT_MASS>  (64) 
332.052185302

>  <FORMULA>  (64) 
C10H13N4O7P

>  <GENERIC_NAME>  (64) 
7-Alpha-D-Ribofuranosyl-Purine-5'-Phosphate

>  <ID>  (64) 


>  <INCHI_IDENTIFIER>  (64) 
InChI=1S/C10H13N4O7P/c15-7-6(2-20-22(17,18)19)21-10(8(7)16)14-4-13-9-5(14)1-11-3-12-9/h1,3-4,6-8,10,15-16H,2H2,(H2,17,18,19)/t6-,7-,8-,10+/m1/s1

>  <INCHI_KEY>  (64) 
NICKPTPNIMHUHB-DQUBFYRCSA-N

>  <INTERNATIONAL_BRANDS>  (64) 
nan

>  <JCHEM_ACCEPTOR_COUNT>  (64) 
9

>  <JCHEM_ATOM_COUNT>  (64) 
nan

>  <JCHEM_AVERAGE_POLARIZABILITY>  (64) 
28.098785251285683

>  <JCHEM_BIOAVAILABILITY>  (64) 
1

>  <JCHEM_DONOR_COUNT>  (64) 
4

>  <JCHEM_FORMAL_CHARGE>  (64) 
0

>  <JCHEM_GHOSE_FILTER>  (64) 
0

>  <JCHEM_IUPAC>  (64) 
{[(2R,3S,4R,5S)-3,4-dihydroxy-5-(7H-purin-7-yl)oxolan-2-yl]methoxy}phosphonic acid

>  <JCHEM_LOGP>  (64) 
-2.0225189796666663

>  <JCHEM_MDDR_LIKE_RULE>  (64) 
0

>  <JCHEM_NUMBER_OF_RINGS>  (64) 
3

>  <JCHEM_PHYSIOLOGICAL_CHARGE>  (64) 
-2

>  <JCHEM_PKA>  (64) 
6.253928029569224

>  <JCHEM_PKA_STRONGEST_ACIDIC>  (64) 
4.143363384869499

>  <JCHEM_PKA_STRONGEST_BASIC>  (64) 
1.2241861793119735

>  <JCHEM_POLAR_SURFACE_AREA>  (64) 
160.04999999999998

>  <JCHEM_REFRACTIVITY>  (64) 
70.6748

>  <JCHEM_ROTATABLE_BOND_COUNT>  (64) 
4

>  <JCHEM_RULE_OF_FIVE>  (64) 
1

>  <JCHEM_TRADITIONAL_IUPAC>  (64) 
[(2R,3S,4R,5S)-3,4-dihydroxy-5-(purin-7-yl)oxolan-2-yl]methoxyphosphonic acid

>  <JCHEM_VEBER_RULE>  (64) 
0

>  <MOLECULAR_WEIGHT>  (64) 
332.2066

>  <PRODUCTS>  (64) 
nan

>  <SALTS>  (64) 
nan

>  <SECONDARY_ACCESSION_NUMBERS>  (64) 
EXPT00316

>  <SMILES>  (64) 
[H][C@]1(COP(O)(O)=O)O[C@]([H])(N2C=NC3=NC=NC=C23)[C@]([H])(O)[C@]1([H])O

>  <SYNONYMS>  (64) 
nan

>  <ECFP_FP>  (64) 
<rdkit.DataStructs.cDataStructs.ExplicitBitVect object at 0xa267b4300>

>  <pki_G>  (64) 
5.89909

>  <pki_D>  (64) 
5.855331

>  <pki_B>  (64) 
5.36827

>  <pki_A>  (64) 
4.963428

>  <SelB>  (64) 
0.53082

>  <SelA>  (64) 
0.935663

>  <SelD>  (64) 
0.04376

>  <AvgABSel>  (64) 
0.733242

>  <MACCS_FP>  (64) 
[0. 0. 0. 0. 0. 0. 0. 0. 0. 0. 0. 0. 0. 0. 0. 0. 0. 0. 0. 0. 0. 0. 0. 0.
 0. 0. 0. 0. 0. 1. 0. 0. 0. 0. 0. 0. 0. 0. 1. 0. 0. 0. 0. 1. 0. 0. 0. 0.
 1. 0. 0. 0. 0. 0. 1. 0. 0. 1. 0. 0. 0. 0. 1. 0. 0. 1. 0. 0. 0. 1. 0. 0.
 1. 0. 0. 1. 0. 1. 0. 1. 1. 0. 0. 1. 0. 1. 0. 0. 0. 1. 1. 1. 1. 0. 0. 1.
 1. 1. 1. 0. 0. 1. 1. 0. 0. 1. 1. 0. 0. 1. 1. 0. 1. 0. 0. 0. 0. 1. 0. 0.
 1. 1. 1. 0. 1. 1. 1. 1. 0. 0. 1. 1. 1. 1. 0. 0. 0. 1. 0. 1. 1. 0. 1. 1.
 0. 0. 1. 0. 1. 0. 1. 0. 1. 1. 0. 1. 1. 1. 1. 1. 0. 1. 1. 1. 1. 1. 0.]

>  <MACCS_pki_G>  (64) 
6.417908

>  <MACCS_pki_D>  (64) 
5.840321

>  <MACCS_pki_B>  (64) 
5.74978

>  <MACCS_pki_A>  (64) 
5.600444

>  <MACCS_SelB>  (64) 
0.668128

>  <MACCS_SelA>  (64) 
0.817464

>  <MACCS_SelD>  (64) 
0.577588

>  <MACCSAvgABSel>  (64) 
0.742796

>  <Pharm2D_FP>  (64) 
[0. 0. 0. ... 0. 0. 0.]

>  <Pharm2D_pki_G>  (64) 
6.05651

>  <Pharm2D_pki_D>  (64) 
5.733377

>  <Pharm2D_pki_B>  (64) 
5.524823

>  <Pharm2D_pki_A>  (64) 
5.525997

>  <Pharm2D_SelB>  (64) 
0.531687

>  <Pharm2D_SelA>  (64) 
0.530513

>  <Pharm2D_SelD>  (64) 
0.323133

>  <Pharm2DAvgABSel>  (64) 
0.5311

>  <QED>  (64) 
0.487779

$$$$
DB07255
     RDKit          2D

 30 34  0  0  0  0  0  0  0  0999 V2000
    9.7457    1.2681    0.0000 Cl  0  0  0  0  0  0  0  0  0  0  0  0
    9.0313    0.8556    0.0000 C   0  0  0  0  0  0  0  0  0  0  0  0
    9.0313    0.0306    0.0000 C   0  0  0  0  0  0  0  0  0  0  0  0
    8.3168   -0.3819    0.0000 C   0  0  0  0  0  0  0  0  0  0  0  0
    7.6023    0.0306    0.0000 C   0  0  0  0  0  0  0  0  0  0  0  0
    6.8177   -0.2243    0.0000 O   0  0  0  0  0  0  0  0  0  0  0  0
    6.3328    0.4431    0.0000 C   0  0  0  0  0  0  0  0  0  0  0  0
    6.8177    1.1105    0.0000 O   0  0  0  0  0  0  0  0  0  0  0  0
    7.6023    0.8556    0.0000 C   0  0  0  0  0  0  0  0  0  0  0  0
    8.3168    1.2681    0.0000 C   0  0  0  0  0  0  0  0  0  0  0  0
    8.3168    2.0931    0.0000 N   0  0  0  0  0  0  0  0  0  0  0  0
    7.6023    2.5056    0.0000 C   0  0  0  0  0  0  0  0  0  0  0  0
    6.8879    2.0931    0.0000 C   0  0  0  0  0  0  0  0  0  0  0  0
    6.1734    2.5056    0.0000 C   0  0  0  0  0  0  0  0  0  0  0  0
    6.1734    3.3306    0.0000 N   0  0  0  0  0  0  0  0  0  0  0  0
    6.8879    3.7431    0.0000 C   0  0  0  0  0  0  0  0  0  0  0  0
    6.8879    4.5681    0.0000 N   0  0  0  0  0  0  0  0  0  0  0  0
    6.1734    4.9806    0.0000 C   0  0  0  0  0  0  0  0  0  0  0  0
    5.4589    4.5681    0.0000 C   0  0  0  0  0  0  0  0  0  0  0  0
    4.7444    4.9806    0.0000 C   0  0  0  0  0  0  0  0  0  0  0  0
    4.7444    5.8056    0.0000 C   0  0  0  0  0  0  0  0  0  0  0  0
    5.4589    6.2181    0.0000 C   0  0  0  0  0  0  0  0  0  0  0  0
    6.1734    5.8056    0.0000 C   0  0  0  0  0  0  0  0  0  0  0  0
    5.4589    7.0431    0.0000 N   0  0  0  0  0  0  0  0  0  0  0  0
    4.7444    7.4556    0.0000 C   0  0  0  0  0  0  0  0  0  0  0  0
    4.7444    8.2806    0.0000 C   0  0  0  0  0  0  0  0  0  0  0  0
    5.4589    8.6931    0.0000 O   0  0  0  0  0  0  0  0  0  0  0  0
    6.1734    8.2806    0.0000 C   0  0  0  0  0  0  0  0  0  0  0  0
    6.1734    7.4556    0.0000 C   0  0  0  0  0  0  0  0  0  0  0  0
    7.6023    3.3306    0.0000 N   0  0  0  0  0  0  0  0  0  0  0  0
  1  2  1  0
  2  3  2  0
  2 10  1  0
  3  4  1  0
  4  5  2  0
  5  6  1  0
  5  9  1  0
  6  7  1  0
  7  8  1  0
  8  9  1  0
  9 10  2  0
 10 11  1  0
 11 12  1  0
 12 13  2  0
 12 30  1  0
 13 14  1  0
 14 15  2  0
 15 16  1  0
 16 17  1  0
 16 30  2  0
 17 18  1  0
 18 19  2  0
 18 23  1  0
 19 20  1  0
 20 21  2  0
 21 22  1  0
 22 23  2  0
 22 24  1  0
 24 25  1  0
 24 29  1  0
 25 26  1  0
 26 27  1  0
 27 28  1  0
 28 29  1  0
M  END
>  <ALOGPS_LOGP>  (65) 
4.19

>  <ALOGPS_LOGS>  (65) 
-4.05

>  <ALOGPS_SOLUBILITY>  (65) 
3.77e-02 g/l

>  <DATABASE_NAME>  (65) 
drugbank

>  <DRUGBANK_ID>  (65) 
DB07255

>  <DRUG_GROUPS>  (65) 
experimental

>  <EXACT_MASS>  (65) 
425.125467238

>  <FORMULA>  (65) 
C21H20ClN5O3

>  <GENERIC_NAME>  (65) 
N'-(5-CHLORO-1,3-BENZODIOXOL-4-YL)-N-(3-MORPHOLIN-4-YLPHENYL)PYRIMIDINE-2,4-DIAMINE

>  <ID>  (65) 
7X7

>  <INCHI_IDENTIFIER>  (65) 
InChI=1S/C21H20ClN5O3/c22-16-4-5-17-20(30-13-29-17)19(16)25-18-6-7-23-21(26-18)24-14-2-1-3-15(12-14)27-8-10-28-11-9-27/h1-7,12H,8-11,13H2,(H2,23,24,25,26)

>  <INCHI_KEY>  (65) 
PNEWIQAEGKQNCE-UHFFFAOYSA-N

>  <INTERNATIONAL_BRANDS>  (65) 
nan

>  <JCHEM_ACCEPTOR_COUNT>  (65) 
8

>  <JCHEM_ATOM_COUNT>  (65) 
nan

>  <JCHEM_AVERAGE_POLARIZABILITY>  (65) 
42.047832560413596

>  <JCHEM_BIOAVAILABILITY>  (65) 
1

>  <JCHEM_DONOR_COUNT>  (65) 
2

>  <JCHEM_FORMAL_CHARGE>  (65) 
0

>  <JCHEM_GHOSE_FILTER>  (65) 
1

>  <JCHEM_IUPAC>  (65) 
N4-(5-chloro-2H-1,3-benzodioxol-4-yl)-N2-[3-(morpholin-4-yl)phenyl]pyrimidine-2,4-diamine

>  <JCHEM_LOGP>  (65) 
4.3196521096666665

>  <JCHEM_MDDR_LIKE_RULE>  (65) 
0

>  <JCHEM_NUMBER_OF_RINGS>  (65) 
5

>  <JCHEM_PHYSIOLOGICAL_CHARGE>  (65) 
0

>  <JCHEM_PKA>  (65) 
14.215510933219171

>  <JCHEM_PKA_STRONGEST_ACIDIC>  (65) 
12.713478295362197

>  <JCHEM_PKA_STRONGEST_BASIC>  (65) 
5.0307064675537605

>  <JCHEM_POLAR_SURFACE_AREA>  (65) 
80.77000000000001

>  <JCHEM_REFRACTIVITY>  (65) 
114.029

>  <JCHEM_ROTATABLE_BOND_COUNT>  (65) 
5

>  <JCHEM_RULE_OF_FIVE>  (65) 
1

>  <JCHEM_TRADITIONAL_IUPAC>  (65) 
N4-(5-chloro-2H-1,3-benzodioxol-4-yl)-N2-[3-(morpholin-4-yl)phenyl]pyrimidine-2,4-diamine

>  <JCHEM_VEBER_RULE>  (65) 
0

>  <MOLECULAR_WEIGHT>  (65) 
425.868

>  <PRODUCTS>  (65) 
nan

>  <SALTS>  (65) 
nan

>  <SECONDARY_ACCESSION_NUMBERS>  (65) 
nan

>  <SMILES>  (65) 
ClC1=C(NC2=NC(NC3=CC(=CC=C3)N3CCOCC3)=NC=C2)C2=C(OCO2)C=C1

>  <SYNONYMS>  (65) 
nan

>  <ECFP_FP>  (65) 
<rdkit.DataStructs.cDataStructs.ExplicitBitVect object at 0xa26a682b0>

>  <pki_G>  (65) 
5.896124

>  <pki_D>  (65) 
6.207457

>  <pki_B>  (65) 
5.502283

>  <pki_A>  (65) 
5.407155

>  <SelB>  (65) 
0.393841

>  <SelA>  (65) 
0.488969

>  <SelD>  (65) 
-0.311333

>  <AvgABSel>  (65) 
0.441405

>  <MACCS_FP>  (65) 
[0. 0. 0. 0. 0. 0. 0. 0. 0. 0. 0. 0. 0. 0. 0. 0. 0. 0. 0. 0. 0. 0. 0. 0.
 0. 1. 0. 0. 1. 0. 0. 0. 0. 0. 0. 0. 0. 0. 1. 0. 0. 0. 0. 0. 0. 0. 0. 0.
 0. 0. 0. 0. 0. 1. 0. 0. 0. 1. 0. 0. 0. 0. 1. 0. 0. 1. 0. 0. 0. 0. 0. 0.
 1. 0. 0. 1. 0. 1. 0. 0. 1. 0. 0. 1. 0. 1. 1. 1. 0. 0. 0. 1. 0. 0. 0. 1.
 1. 1. 1. 0. 1. 1. 0. 1. 0. 1. 1. 1. 0. 1. 0. 1. 0. 1. 0. 0. 0. 0. 1. 0.
 1. 1. 1. 1. 0. 1. 0. 0. 1. 1. 0. 1. 1. 1. 1. 1. 0. 1. 1. 0. 0. 0. 1. 0.
 1. 1. 1. 1. 1. 0. 1. 1. 1. 1. 0. 0. 1. 1. 1. 1. 0. 1. 1. 1. 1. 1. 0.]

>  <MACCS_pki_G>  (65) 
6.472609

>  <MACCS_pki_D>  (65) 
5.905847

>  <MACCS_pki_B>  (65) 
5.72702

>  <MACCS_pki_A>  (65) 
5.615026

>  <MACCS_SelB>  (65) 
0.745589

>  <MACCS_SelA>  (65) 
0.857583

>  <MACCS_SelD>  (65) 
0.566761

>  <MACCSAvgABSel>  (65) 
0.801586

>  <Pharm2D_FP>  (65) 
[0. 0. 0. ... 0. 0. 0.]

>  <Pharm2D_pki_G>  (65) 
5.852346

>  <Pharm2D_pki_D>  (65) 
6.271166

>  <Pharm2D_pki_B>  (65) 
5.681841

>  <Pharm2D_pki_A>  (65) 
5.941284

>  <Pharm2D_SelB>  (65) 
0.170504

>  <Pharm2D_SelA>  (65) 
-0.088938

>  <Pharm2D_SelD>  (65) 
-0.41882

>  <Pharm2DAvgABSel>  (65) 
0.040783

>  <QED>  (65) 
0.629676

$$$$
DB05340
     RDKit          2D

 39 42  0  0  1  0  0  0  0  0999 V2000
    9.2396    6.2215    0.0000 S   0  0  0  0  0  0  0  0  0  0  0  0
    9.8230    7.5259    0.0000 Na  0  0  0  0  0 15  0  0  0  0  0  0
    4.9763    4.1040    0.0000 O   0  0  0  0  0  0  0  0  0  0  0  0
    2.3059    3.4800    0.0000 O   0  0  0  0  0  0  0  0  0  0  0  0
    5.8134    4.6233    0.0000 O   0  0  0  0  0  0  0  0  0  0  0  0
    7.3196    3.9496    0.0000 O   0  0  0  0  0  0  0  0  0  0  0  0
    0.0000    0.5493    0.0000 O   0  0  0  0  0  0  0  0  0  0  0  0
    8.1575    2.7921    0.0000 O   0  0  0  0  0  0  0  0  0  0  0  0
    9.1548    7.0421    0.0000 O   0  0  0  0  0  0  0  0  0  0  0  0
    8.4190    6.1367    0.0000 O   0  0  0  0  0  0  0  0  0  0  0  0
   10.0602    6.3063    0.0000 O   0  0  0  0  0  0  0  0  0  0  0  0
    4.4493    3.0675    0.0000 C   0  0  0  0  0  0  0  0  0  0  0  0
    4.4493    2.2425    0.0000 C   0  0  0  0  0  0  0  0  0  0  0  0
    3.7349    1.8300    0.0000 C   0  0  0  0  0  0  0  0  0  0  0  0
    3.0203    2.2425    0.0000 C   0  0  0  0  0  0  0  0  0  0  0  0
    5.2299    3.3189    0.0000 C   0  0  0  0  0  0  0  0  0  0  0  0
    3.7349    3.4800    0.0000 C   0  0  0  0  0  0  0  0  0  0  0  0
    5.2299    1.9911    0.0000 C   0  0  0  0  0  0  0  0  0  0  0  0
    3.0203    3.0675    0.0000 C   0  0  0  0  0  0  0  0  0  0  0  0
    2.2696    1.8243    0.0000 C   0  0  0  0  0  0  0  0  0  0  0  0
    5.7114    2.6550    0.0000 C   0  0  0  0  0  0  0  0  0  0  0  0
    3.7481    0.9708    0.0000 C   0  0  0  0  0  0  0  0  0  0  0  0
    4.4493    3.8925    0.0000 C   0  0  0  0  0  0  0  0  0  0  0  0
    3.0072    0.5353    0.0000 C   0  0  0  0  0  0  0  0  0  0  0  0
    2.2630    0.9650    0.0000 C   0  0  0  0  0  0  0  0  0  0  0  0
    5.8982    3.8027    0.0000 C   0  0  0  0  0  0  0  0  0  0  0  0
    2.2759    2.6493    0.0000 C   0  0  0  0  0  0  0  0  0  0  0  0
    1.5050    2.2897    0.0000 C   0  0  0  0  0  0  0  0  0  0  0  0
    1.4913    0.5115    0.0000 C   0  0  0  0  0  0  0  0  0  0  0  0
    6.6513    3.4658    0.0000 C   0  0  0  0  0  0  0  0  0  0  0  0
    0.7229    1.8542    0.0000 C   0  0  0  0  0  0  0  0  0  0  0  0
    0.7160    0.9591    0.0000 C   0  0  0  0  0  0  0  0  0  0  0  0
    8.0727    3.6127    0.0000 C   0  0  0  0  0  0  0  0  0  0  0  0
    8.7410    4.0965    0.0000 C   0  0  0  0  0  0  0  0  0  0  0  0
    8.6562    4.9171    0.0000 C   0  0  0  0  0  0  0  0  0  0  0  0
    9.4940    3.7596    0.0000 C   0  0  0  0  0  0  0  0  0  0  0  0
    9.3244    5.4009    0.0000 C   0  0  0  0  0  0  0  0  0  0  0  0
   10.1624    4.2434    0.0000 C   0  0  0  0  0  0  0  0  0  0  0  0
   10.0775    5.0640    0.0000 C   0  0  0  0  0  0  0  0  0  0  0  0
  1  9  1  0
  1 10  2  0
  1 11  2  0
  1 37  1  0
  3 16  1  0
  4 19  1  0
  5 26  2  0
  6 30  1  0
  6 33  1  0
  7 32  2  0
  8 33  2  0
 12 13  1  0
 12 16  1  0
 12 17  1  0
 12 23  1  0
 13 14  1  0
 13 18  1  0
 14 15  1  0
 14 22  1  0
 15 19  1  0
 15 20  1  0
 16 21  1  0
 16 26  1  0
 17 19  1  0
 18 21  1  0
 20 25  1  0
 20 27  1  0
 20 28  1  0
 22 24  1  0
 24 25  1  0
 25 29  2  0
 26 30  1  0
 28 31  2  0
 29 32  1  0
 31 32  1  0
 33 34  1  0
 34 35  2  0
 34 36  1  0
 35 37  1  0
 36 38  2  0
 37 39  2  0
 38 39  1  0
M  CHG  2   2   1   9  -1
M  END
>  <ALOGPS_LOGP>  (66) 
2.5

>  <ALOGPS_LOGS>  (66) 
-4.36

>  <ALOGPS_SOLUBILITY>  (66) 
2.49e-02 g/l

>  <DATABASE_NAME>  (66) 
drugbank

>  <DRUGBANK_ID>  (66) 
DB05340

>  <DRUG_GROUPS>  (66) 
investigational

>  <EXACT_MASS>  (66) 
566.158647955

>  <FORMULA>  (66) 
C28H31NaO9S

>  <GENERIC_NAME>  (66) 
ATL-2502

>  <ID>  (66) 


>  <INCHI_IDENTIFIER>  (66) 
InChI=1S/C28H32O9S.Na/c1-26-10-8-18(29)13-17(26)6-7-20-21-9-11-28(33,27(21,2)14-22(30)24(20)26)23(31)15-37-25(32)16-4-3-5-19(12-16)38(34,35)36;/h3-5,8,10,12-13,20-22,24,30,33H,6-7,9,11,14-15H2,1-2H3,(H,34,35,36);/q;+1/p-1

>  <INCHI_KEY>  (66) 
RWFZSORKWFPGNE-UHFFFAOYSA-M

>  <INTERNATIONAL_BRANDS>  (66) 
nan

>  <JCHEM_ACCEPTOR_COUNT>  (66) 
8

>  <JCHEM_ATOM_COUNT>  (66) 
nan

>  <JCHEM_AVERAGE_POLARIZABILITY>  (66) 
55.747830391558594

>  <JCHEM_BIOAVAILABILITY>  (66) 
1

>  <JCHEM_DONOR_COUNT>  (66) 
2

>  <JCHEM_FORMAL_CHARGE>  (66) 
0

>  <JCHEM_GHOSE_FILTER>  (66) 
0

>  <JCHEM_IUPAC>  (66) 
sodium 3-[(2-{14,17-dihydroxy-2,15-dimethyl-5-oxotetracyclo[8.7.0.0²,⁷.0¹¹,¹⁵]heptadeca-3,6-dien-14-yl}-2-oxoethoxy)carbonyl]benzene-1-sulfonate

>  <JCHEM_LOGP>  (66) 
0.8067980463159506

>  <JCHEM_MDDR_LIKE_RULE>  (66) 
1

>  <JCHEM_NUMBER_OF_RINGS>  (66) 
5

>  <JCHEM_PHYSIOLOGICAL_CHARGE>  (66) 
-1

>  <JCHEM_PKA>  (66) 
12.61009476380054

>  <JCHEM_PKA_STRONGEST_ACIDIC>  (66) 
-2.518245942415681

>  <JCHEM_PKA_STRONGEST_BASIC>  (66) 
-2.8513437470617395

>  <JCHEM_POLAR_SURFACE_AREA>  (66) 
158.1

>  <JCHEM_REFRACTIVITY>  (66) 
137.81609999999998

>  <JCHEM_ROTATABLE_BOND_COUNT>  (66) 
6

>  <JCHEM_RULE_OF_FIVE>  (66) 
0

>  <JCHEM_TRADITIONAL_IUPAC>  (66) 
sodium 3-[(2-{14,17-dihydroxy-2,15-dimethyl-5-oxotetracyclo[8.7.0.0²,⁷.0¹¹,¹⁵]heptadeca-3,6-dien-14-yl}-2-oxoethoxy)carbonyl]benzenesulfonate

>  <JCHEM_VEBER_RULE>  (66) 
0

>  <MOLECULAR_WEIGHT>  (66) 
566.595

>  <PRODUCTS>  (66) 
nan

>  <SALTS>  (66) 
nan

>  <SECONDARY_ACCESSION_NUMBERS>  (66) 
nan

>  <SMILES>  (66) 
[Na+].CC12CC(O)C3C(CCC4=CC(=O)C=CC34C)C1CCC2(O)C(=O)COC(=O)C1=CC(=CC=C1)S([O-])(=O)=O

>  <SYNONYMS>  (66) 
nan

>  <ECFP_FP>  (66) 
<rdkit.DataStructs.cDataStructs.ExplicitBitVect object at 0xa269d36c0>

>  <pki_G>  (66) 
5.893785

>  <pki_D>  (66) 
5.924608

>  <pki_B>  (66) 
5.377644

>  <pki_A>  (66) 
5.636321

>  <SelB>  (66) 
0.516141

>  <SelA>  (66) 
0.257464

>  <SelD>  (66) 
-0.030822

>  <AvgABSel>  (66) 
0.386802

>  <MACCS_FP>  (66) 
[0. 0. 0. 0. 0. 0. 0. 0. 0. 0. 0. 0. 0. 0. 0. 0. 0. 0. 0. 0. 0. 0. 0. 0.
 0. 0. 1. 0. 0. 0. 0. 0. 0. 0. 0. 1. 0. 0. 0. 1. 1. 0. 0. 0. 1. 0. 0. 0.
 1. 1. 1. 1. 0. 0. 0. 1. 0. 0. 1. 1. 1. 1. 0. 0. 1. 0. 1. 1. 0. 0. 0. 0.
 1. 1. 0. 0. 1. 0. 0. 0. 0. 1. 0. 0. 0. 0. 0. 0. 1. 1. 1. 1. 0. 0. 0. 0.
 1. 0. 0. 1. 0. 1. 1. 0. 1. 1. 1. 0. 1. 1. 0. 0. 1. 0. 0. 1. 1. 0. 1. 0.
 0. 0. 0. 1. 1. 0. 1. 1. 1. 1. 1. 1. 1. 0. 0. 0. 1. 0. 0. 1. 1. 0. 0. 1.
 0. 1. 1. 1. 1. 1. 1. 0. 1. 1. 1. 1. 0. 1. 0. 1. 1. 0. 1. 1. 1. 1. 1.]

>  <MACCS_pki_G>  (66) 
5.971121

>  <MACCS_pki_D>  (66) 
6.104912

>  <MACCS_pki_B>  (66) 
5.693952

>  <MACCS_pki_A>  (66) 
5.826592

>  <MACCS_SelB>  (66) 
0.277168

>  <MACCS_SelA>  (66) 
0.144529

>  <MACCS_SelD>  (66) 
-0.133791

>  <MACCSAvgABSel>  (66) 
0.210848

>  <Pharm2D_FP>  (66) 
[0. 0. 0. ... 0. 0. 0.]

>  <Pharm2D_pki_G>  (66) 
6.134715

>  <Pharm2D_pki_D>  (66) 
5.60971

>  <Pharm2D_pki_B>  (66) 
5.364422

>  <Pharm2D_pki_A>  (66) 
5.438032

>  <Pharm2D_SelB>  (66) 
0.770293

>  <Pharm2D_SelA>  (66) 
0.696683

>  <Pharm2D_SelD>  (66) 
0.525004

>  <Pharm2DAvgABSel>  (66) 
0.733488

>  <QED>  (66) 
0.267908

$$$$
DB02623
     RDKit          2D

 28 30  0  0  1  0  0  0  0  0999 V2000
   -1.8505   -3.7149    0.0000 C   0  0  0  0  0  0  0  0  0  0  0  0
   -0.6284   -0.6979    0.0000 C   0  0  0  0  0  0  0  0  0  0  0  0
   -1.1831   -3.2299    0.0000 C   0  0  0  0  0  0  0  0  0  0  0  0
    0.6411   -0.2854    0.0000 C   0  0  0  0  0  0  0  0  0  0  0  0
   -0.3984   -3.4849    0.0000 C   0  0  0  0  0  0  0  0  0  0  0  0
    0.0865   -2.8174    0.0000 C   0  0  0  0  0  0  0  0  0  0  0  0
    0.6411   -1.1104    0.0000 C   0  0  0  0  0  0  0  0  0  0  0  0
    1.3556    0.1271    0.0000 C   0  0  0  0  0  0  0  0  0  0  0  0
   -0.3984   -2.1500    0.0000 C   0  0  0  0  0  0  0  0  0  0  0  0
    2.0701   -1.1104    0.0000 C   0  0  0  0  0  0  0  0  0  0  0  0
    2.7845   -1.5229    0.0000 N   0  0  0  0  0  0  0  0  0  0  0  0
   -2.9267   -7.1462    0.0000 N   0  0  0  0  0  0  0  0  0  0  0  0
   -0.1435   -0.0305    0.0000 N   0  0  0  0  0  0  0  0  0  0  0  0
    1.3556   -1.5229    0.0000 N   0  0  0  0  0  0  0  0  0  0  0  0
    2.0701   -0.2854    0.0000 N   0  0  0  0  0  0  0  0  0  0  0  0
   -0.1435   -1.3654    0.0000 N   0  0  0  0  0  0  0  0  0  0  0  0
   -0.1435   -4.2695    0.0000 O   0  0  0  0  0  0  0  0  0  0  0  0
    0.9115   -2.8174    0.0000 O   0  0  0  0  0  0  0  0  0  0  0  0
    1.3556    0.9521    0.0000 O   0  0  0  0  0  0  0  0  0  0  0  0
   -3.8334   -6.4119    0.0000 O   0  0  0  0  0  0  0  0  0  0  0  0
   -2.1924   -6.2394    0.0000 O   0  0  0  0  0  0  0  0  0  0  0  0
   -2.9166   -4.3528    0.0000 O   0  0  0  0  0  0  0  0  0  0  0  0
   -1.9468   -5.6877    0.0000 O   0  0  0  0  0  0  0  0  0  0  0  0
   -1.7643   -4.5353    0.0000 O   0  0  0  0  0  0  0  0  0  0  0  0
   -1.1831   -2.4049    0.0000 O   0  0  0  0  0  0  0  0  0  0  0  0
   -3.0991   -5.5052    0.0000 O   0  0  0  0  0  0  0  0  0  0  0  0
   -3.0129   -6.3257    0.0000 P   0  0  0  0  0  0  0  0  0  0  0  0
   -2.4317   -5.0203    0.0000 P   0  0  0  0  0  0  0  0  0  0  0  0
  3  1  1  1
  5  3  1  0
  6  5  1  0
  7  4  2  0
  8  4  1  0
  9  6  1  0
 11 10  2  0
 13  2  2  0
 13  4  1  0
 14  7  1  0
 14 10  1  0
 15  8  2  0
 15 10  1  0
 16  2  1  0
 16  7  1  0
  9 16  1  1
  5 17  1  6
  6 18  1  6
 19  8  1  0
 24  1  1  0
 25  3  1  0
 25  9  1  0
 27 12  1  0
 27 20  1  0
 27 21  2  0
 27 26  1  0
 28 22  1  0
 28 23  2  0
 28 24  1  0
 28 26  1  0
M  END
>  <ALOGPS_LOGP>  (67) 
-1.57

>  <ALOGPS_LOGS>  (67) 
-1.99

>  <ALOGPS_SOLUBILITY>  (67) 
4.55e+00 g/l

>  <DATABASE_NAME>  (67) 
drugbank

>  <DRUGBANK_ID>  (67) 
DB02623

>  <DRUG_GROUPS>  (67) 
experimental

>  <EXACT_MASS>  (67) 
442.040313786

>  <FORMULA>  (67) 
C10H16N6O10P2

>  <GENERIC_NAME>  (67) 
Aminophosphonic Acid-Guanylate Ester

>  <ID>  (67) 


>  <INCHI_IDENTIFIER>  (67) 
InChI=1S/C10H16N6O10P2/c11-10-14-7-4(8(19)15-10)13-2-16(7)9-6(18)5(17)3(25-9)1-24-28(22,23)26-27(12,20)21/h2-3,5-6,9,17-18H,1H2,(H,22,23)(H3,12,20,21)(H3,11,14,15,19)/t3-,5-,6-,9-/m1/s1

>  <INCHI_KEY>  (67) 
ZGPDMUBRWRJAQQ-UUOKFMHZSA-N

>  <INTERNATIONAL_BRANDS>  (67) 
nan

>  <JCHEM_ACCEPTOR_COUNT>  (67) 
12

>  <JCHEM_ATOM_COUNT>  (67) 
nan

>  <JCHEM_AVERAGE_POLARIZABILITY>  (67) 
35.79908524426662

>  <JCHEM_BIOAVAILABILITY>  (67) 
0

>  <JCHEM_DONOR_COUNT>  (67) 
8

>  <JCHEM_FORMAL_CHARGE>  (67) 
0

>  <JCHEM_GHOSE_FILTER>  (67) 
0

>  <JCHEM_IUPAC>  (67) 
{[amino(hydroxy)phosphoryl]oxy}({[(2R,3S,4R,5R)-3,4-dihydroxy-5-(6-hydroxy-2-imino-3,9-dihydro-2H-purin-9-yl)oxolan-2-yl]methoxy})phosphinic acid

>  <JCHEM_LOGP>  (67) 
-3.548206987675762

>  <JCHEM_MDDR_LIKE_RULE>  (67) 
1

>  <JCHEM_NUMBER_OF_RINGS>  (67) 
3

>  <JCHEM_PHYSIOLOGICAL_CHARGE>  (67) 
-2

>  <JCHEM_PKA>  (67) 
4.082436310620885

>  <JCHEM_PKA_STRONGEST_ACIDIC>  (67) 
0.641429732059152

>  <JCHEM_PKA_STRONGEST_BASIC>  (67) 
4.995828918491667

>  <JCHEM_POLAR_SURFACE_AREA>  (67) 
255.05999999999995

>  <JCHEM_REFRACTIVITY>  (67) 
98.48339999999999

>  <JCHEM_ROTATABLE_BOND_COUNT>  (67) 
6

>  <JCHEM_RULE_OF_FIVE>  (67) 
0

>  <JCHEM_TRADITIONAL_IUPAC>  (67) 
[amino(hydroxy)phosphoryl]oxy[(2R,3S,4R,5R)-3,4-dihydroxy-5-(6-hydroxy-2-imino-3H-purin-9-yl)oxolan-2-yl]methoxyphosphinic acid

>  <JCHEM_VEBER_RULE>  (67) 
0

>  <MOLECULAR_WEIGHT>  (67) 
442.2158

>  <PRODUCTS>  (67) 
nan

>  <SALTS>  (67) 
nan

>  <SECONDARY_ACCESSION_NUMBERS>  (67) 
EXPT01626

>  <SMILES>  (67) 
[H][C@]1(COP(O)(=O)OP(N)(O)=O)O[C@@]([H])(N2C=NC3=C2NC(=N)N=C3O)[C@]([H])(O)[C@]1([H])O

>  <SYNONYMS>  (67) 
nan

>  <ECFP_FP>  (67) 
<rdkit.DataStructs.cDataStructs.ExplicitBitVect object at 0xa267501c0>

>  <pki_G>  (67) 
5.889774

>  <pki_D>  (67) 
5.762585

>  <pki_B>  (67) 
5.378991

>  <pki_A>  (67) 
5.325656

>  <SelB>  (67) 
0.510783

>  <SelA>  (67) 
0.564118

>  <SelD>  (67) 
0.12719

>  <AvgABSel>  (67) 
0.537451

>  <MACCS_FP>  (67) 
[0. 0. 0. 0. 0. 0. 0. 0. 0. 0. 0. 0. 0. 0. 0. 0. 0. 0. 0. 0. 0. 0. 0. 0.
 0. 1. 0. 0. 0. 1. 0. 0. 0. 0. 0. 0. 0. 0. 1. 0. 0. 0. 0. 1. 0. 0. 0. 0.
 1. 0. 0. 0. 0. 1. 1. 0. 0. 1. 0. 0. 0. 0. 1. 0. 0. 1. 0. 0. 0. 1. 0. 0.
 1. 0. 0. 1. 0. 1. 1. 1. 1. 0. 0. 1. 1. 1. 0. 0. 0. 1. 1. 1. 1. 0. 1. 1.
 1. 1. 1. 0. 0. 1. 1. 0. 0. 1. 1. 0. 0. 1. 1. 0. 1. 1. 0. 0. 0. 1. 0. 1.
 1. 1. 1. 0. 1. 1. 1. 1. 0. 0. 1. 1. 1. 1. 0. 1. 1. 1. 0. 1. 1. 0. 1. 1.
 0. 0. 1. 0. 1. 0. 1. 1. 1. 1. 0. 1. 1. 1. 1. 1. 0. 1. 1. 1. 1. 1. 0.]

>  <MACCS_pki_G>  (67) 
6.324425

>  <MACCS_pki_D>  (67) 
5.815827

>  <MACCS_pki_B>  (67) 
5.76428

>  <MACCS_pki_A>  (67) 
5.777048

>  <MACCS_SelB>  (67) 
0.560144

>  <MACCS_SelA>  (67) 
0.547377

>  <MACCS_SelD>  (67) 
0.508597

>  <MACCSAvgABSel>  (67) 
0.553761

>  <Pharm2D_FP>  (67) 
[0. 0. 0. ... 0. 0. 0.]

>  <Pharm2D_pki_G>  (67) 
6.295707

>  <Pharm2D_pki_D>  (67) 
6.156961

>  <Pharm2D_pki_B>  (67) 
5.692192

>  <Pharm2D_pki_A>  (67) 
5.623583

>  <Pharm2D_SelB>  (67) 
0.603516

>  <Pharm2D_SelA>  (67) 
0.672124

>  <Pharm2D_SelD>  (67) 
0.138746

>  <Pharm2DAvgABSel>  (67) 
0.63782

>  <QED>  (67) 
0.220242

$$$$
DB02082
     RDKit          2D

 32 34  0  0  1  0  0  0  0  0999 V2000
   -1.8505   -3.7149    0.0000 C   0  0  0  0  0  0  0  0  0  0  0  0
   -0.6284   -0.6979    0.0000 C   0  0  0  0  0  0  0  0  0  0  0  0
   -1.1831   -3.2299    0.0000 C   0  0  0  0  0  0  0  0  0  0  0  0
    0.6411   -0.2854    0.0000 C   0  0  0  0  0  0  0  0  0  0  0  0
   -0.3984   -3.4849    0.0000 C   0  0  0  0  0  0  0  0  0  0  0  0
    0.0865   -2.8174    0.0000 C   0  0  0  0  0  0  0  0  0  0  0  0
    0.6411   -1.1104    0.0000 C   0  0  0  0  0  0  0  0  0  0  0  0
    1.3556    0.1271    0.0000 C   0  0  0  0  0  0  0  0  0  0  0  0
   -0.3984   -2.1500    0.0000 C   0  0  0  0  0  0  0  0  0  0  0  0
    2.0701   -1.1104    0.0000 C   0  0  0  0  0  0  0  0  0  0  0  0
    2.7845   -1.5229    0.0000 N   0  0  0  0  0  0  0  0  0  0  0  0
   -0.1435   -0.0305    0.0000 N   0  0  0  0  0  0  0  0  0  0  0  0
    1.3556   -1.5229    0.0000 N   0  0  0  0  0  0  0  0  0  0  0  0
    2.0701   -0.2854    0.0000 N   0  0  0  0  0  0  0  0  0  0  0  0
   -5.4464   -3.6780    0.0000 N   0  0  0  0  0  0  0  0  0  0  0  0
   -0.1435   -1.3654    0.0000 N   0  0  0  0  0  0  0  0  0  0  0  0
   -0.1435   -4.2695    0.0000 O   0  0  0  0  0  0  0  0  0  0  0  0
    0.9115   -2.8174    0.0000 O   0  0  0  0  0  0  0  0  0  0  0  0
    1.3556    0.9521    0.0000 O   0  0  0  0  0  0  0  0  0  0  0  0
   -6.7813   -4.6479    0.0000 O   0  0  0  0  0  0  0  0  0  0  0  0
   -6.5988   -3.4955    0.0000 O   0  0  0  0  0  0  0  0  0  0  0  0
   -5.6289   -4.8304    0.0000 O   0  0  0  0  0  0  0  0  0  0  0  0
   -4.3572   -3.2599    0.0000 O   0  0  0  0  0  0  0  0  0  0  0  0
   -5.0283   -4.7673    0.0000 O   0  0  0  0  0  0  0  0  0  0  0  0
   -3.7565   -3.1968    0.0000 O   0  0  0  0  0  0  0  0  0  0  0  0
   -2.7867   -4.5317    0.0000 O   0  0  0  0  0  0  0  0  0  0  0  0
   -2.6042   -3.3793    0.0000 O   0  0  0  0  0  0  0  0  0  0  0  0
   -1.1831   -2.4049    0.0000 O   0  0  0  0  0  0  0  0  0  0  0  0
   -3.9391   -4.3492    0.0000 O   0  0  0  0  0  0  0  0  0  0  0  0
   -6.1138   -4.1630    0.0000 P   0  0  0  0  0  0  0  0  0  0  0  0
   -4.6927   -4.0136    0.0000 P   0  0  0  0  0  0  0  0  0  0  0  0
   -3.2716   -3.8642    0.0000 P   0  0  0  0  0  0  0  0  0  0  0  0
  3  1  1  1
  5  3  1  0
  6  5  1  0
  7  4  2  0
  8  4  1  0
  9  6  1  0
 11 10  2  0
 12  2  2  0
 12  4  1  0
 13  7  1  0
 13 10  1  0
 14  8  2  0
 14 10  1  0
 16  2  1  0
 16  7  1  0
  9 16  1  1
  5 17  1  6
  6 18  1  6
 19  8  1  0
 27  1  1  0
 28  3  1  0
 28  9  1  0
 30 15  1  0
 30 20  2  0
 30 21  1  0
 30 22  1  0
 31 15  1  0
 31 23  2  0
 31 24  1  0
 31 29  1  0
 32 25  1  0
 32 26  2  0
 32 27  1  0
 32 29  1  0
M  END
>  <ALOGPS_LOGP>  (68) 
-1.0

>  <ALOGPS_LOGS>  (68) 
-1.87

>  <ALOGPS_SOLUBILITY>  (68) 
7.00e+00 g/l

>  <DATABASE_NAME>  (68) 
drugbank

>  <DRUGBANK_ID>  (68) 
DB02082

>  <DRUG_GROUPS>  (68) 
experimental

>  <EXACT_MASS>  (68) 
522.006644196

>  <FORMULA>  (68) 
C10H17N6O13P3

>  <GENERIC_NAME>  (68) 
Phosphoaminophosphonic Acid Guanylate Ester

>  <ID>  (68) 


>  <INCHI_IDENTIFIER>  (68) 
InChI=1S/C10H17N6O13P3/c11-10-13-7-4(8(19)14-10)12-2-16(7)9-6(18)5(17)3(28-9)1-27-32(25,26)29-31(23,24)15-30(20,21)22/h2-3,5-6,9,17-18H,1H2,(H,25,26)(H3,11,13,14,19)(H4,15,20,21,22,23,24)/t3-,5-,6-,9-/m1/s1

>  <INCHI_KEY>  (68) 
UQABYHGXWYXDTK-UUOKFMHZSA-N

>  <INTERNATIONAL_BRANDS>  (68) 
nan

>  <JCHEM_ACCEPTOR_COUNT>  (68) 
15

>  <JCHEM_ATOM_COUNT>  (68) 
nan

>  <JCHEM_AVERAGE_POLARIZABILITY>  (68) 
40.59501634247092

>  <JCHEM_BIOAVAILABILITY>  (68) 
0

>  <JCHEM_DONOR_COUNT>  (68) 
10

>  <JCHEM_FORMAL_CHARGE>  (68) 
0

>  <JCHEM_GHOSE_FILTER>  (68) 
0

>  <JCHEM_IUPAC>  (68) 
({[({[(2R,3S,4R,5R)-3,4-dihydroxy-5-(6-hydroxy-2-imino-3,9-dihydro-2H-purin-9-yl)oxolan-2-yl]methoxy}(hydroxy)phosphoryl)oxy](hydroxy)phosphoryl}amino)phosphonic acid

>  <JCHEM_LOGP>  (68) 
-4.293400625277916

>  <JCHEM_MDDR_LIKE_RULE>  (68) 
1

>  <JCHEM_NUMBER_OF_RINGS>  (68) 
3

>  <JCHEM_PHYSIOLOGICAL_CHARGE>  (68) 
-4

>  <JCHEM_PKA>  (68) 
1.4538501019740977

>  <JCHEM_PKA_STRONGEST_ACIDIC>  (68) 
0.3446860050801459

>  <JCHEM_PKA_STRONGEST_BASIC>  (68) 
3.5781220545987917

>  <JCHEM_POLAR_SURFACE_AREA>  (68) 
298.6

>  <JCHEM_REFRACTIVITY>  (68) 
109.77069999999995

>  <JCHEM_ROTATABLE_BOND_COUNT>  (68) 
8

>  <JCHEM_RULE_OF_FIVE>  (68) 
0

>  <JCHEM_TRADITIONAL_IUPAC>  (68) 
({[(2R,3S,4R,5R)-3,4-dihydroxy-5-(6-hydroxy-2-imino-3H-purin-9-yl)oxolan-2-yl]methoxy(hydroxy)phosphoryl}oxy(hydroxy)phosphoryl)aminophosphonic acid

>  <JCHEM_VEBER_RULE>  (68) 
0

>  <MOLECULAR_WEIGHT>  (68) 
522.1957

>  <PRODUCTS>  (68) 
nan

>  <SALTS>  (68) 
nan

>  <SECONDARY_ACCESSION_NUMBERS>  (68) 
EXPT01658

>  <SMILES>  (68) 
[H][C@]1(COP(O)(=O)OP(O)(=O)NP(O)(O)=O)O[C@@]([H])(N2C=NC3=C2NC(=N)N=C3O)[C@]([H])(O)[C@]1([H])O

>  <SYNONYMS>  (68) 
nan

>  <ECFP_FP>  (68) 
<rdkit.DataStructs.cDataStructs.ExplicitBitVect object at 0xa266f9e90>

>  <pki_G>  (68) 
5.889774

>  <pki_D>  (68) 
5.842357

>  <pki_B>  (68) 
5.37836

>  <pki_A>  (68) 
5.547635

>  <SelB>  (68) 
0.511415

>  <SelA>  (68) 
0.34214

>  <SelD>  (68) 
0.047417

>  <AvgABSel>  (68) 
0.426777

>  <MACCS_FP>  (68) 
[0. 0. 0. 0. 0. 0. 0. 0. 0. 0. 0. 0. 0. 0. 0. 0. 0. 0. 0. 0. 0. 0. 0. 0.
 0. 1. 0. 0. 0. 1. 0. 0. 0. 0. 0. 0. 0. 0. 1. 0. 0. 0. 0. 1. 0. 0. 0. 0.
 1. 0. 0. 0. 0. 1. 1. 0. 0. 1. 0. 0. 0. 0. 1. 0. 0. 1. 0. 0. 0. 1. 1. 0.
 1. 0. 0. 1. 0. 1. 1. 1. 1. 0. 0. 1. 0. 1. 0. 0. 0. 1. 1. 1. 1. 0. 1. 1.
 1. 1. 1. 0. 0. 1. 1. 0. 0. 1. 1. 0. 0. 1. 1. 0. 1. 1. 0. 0. 0. 1. 0. 1.
 1. 1. 1. 0. 1. 1. 1. 1. 0. 0. 1. 1. 1. 1. 0. 1. 1. 1. 0. 1. 1. 0. 1. 1.
 0. 0. 1. 0. 1. 0. 1. 1. 1. 1. 0. 1. 1. 1. 1. 1. 0. 1. 1. 1. 1. 1. 0.]

>  <MACCS_pki_G>  (68) 
6.514837

>  <MACCS_pki_D>  (68) 
5.827654

>  <MACCS_pki_B>  (68) 
5.76428

>  <MACCS_pki_A>  (68) 
5.998302

>  <MACCS_SelB>  (68) 
0.750556

>  <MACCS_SelA>  (68) 
0.516535

>  <MACCS_SelD>  (68) 
0.687182

>  <MACCSAvgABSel>  (68) 
0.633546

>  <Pharm2D_FP>  (68) 
[0. 0. 0. ... 0. 0. 0.]

>  <Pharm2D_pki_G>  (68) 
6.41666

>  <Pharm2D_pki_D>  (68) 
6.156961

>  <Pharm2D_pki_B>  (68) 
5.692192

>  <Pharm2D_pki_A>  (68) 
5.623583

>  <Pharm2D_SelB>  (68) 
0.724468

>  <Pharm2D_SelA>  (68) 
0.793076

>  <Pharm2D_SelD>  (68) 
0.259698

>  <Pharm2DAvgABSel>  (68) 
0.758772

>  <QED>  (68) 
0.159926

$$$$
DB01084
     RDKit          2D

 22 24  0  0  1  0  0  0  0  0999 V2000
    3.8213    1.1875    0.0000 O   0  0  0  0  0  0  0  0  0  0  0  0
    5.1662   -1.6589    0.0000 N   0  0  0  0  0  0  0  0  0  0  0  0
    6.9735   -2.0714    0.0000 N   0  0  0  0  0  0  0  0  0  0  0  0
    3.8597   -0.9950    0.0000 N   0  0  0  0  0  0  0  0  0  0  0  0
    3.8597   -2.3228    0.0000 N   0  0  0  0  0  0  0  0  0  0  0  0
    5.5242   -0.9155    0.0000 C   0  0  0  0  0  0  0  0  0  0  0  0
    5.5242   -2.4022    0.0000 C   0  0  0  0  0  0  0  0  0  0  0  0
    6.3285   -0.7320    0.0000 C   0  0  0  0  0  0  0  0  0  0  0  0
    6.3285   -2.5858    0.0000 C   0  0  0  0  0  0  0  0  0  0  0  0
    6.9735   -1.2464    0.0000 C   0  0  0  0  0  0  0  0  0  0  0  0
    4.3412   -1.6589    0.0000 C   0  0  0  0  0  0  0  0  0  0  0  0
    3.0791   -1.2464    0.0000 C   0  0  0  0  0  0  0  0  0  0  0  0
    4.1159   -0.2108    0.0000 C   0  0  0  0  0  0  0  0  0  0  0  0
    3.0791   -2.0714    0.0000 C   0  0  0  0  0  0  0  0  0  0  0  0
    7.7168   -2.4293    0.0000 C   0  0  0  0  0  0  0  0  0  0  0  0
    3.5650    0.4034    0.0000 C   0  0  0  0  0  0  0  0  0  0  0  0
    2.3645   -0.8338    0.0000 C   0  0  0  0  0  0  0  0  0  0  0  0
    2.3645   -2.4839    0.0000 C   0  0  0  0  0  0  0  0  0  0  0  0
    1.6500   -1.2464    0.0000 C   0  0  0  0  0  0  0  0  0  0  0  0
    1.6500   -2.0714    0.0000 C   0  0  0  0  0  0  0  0  0  0  0  0
    3.2703    1.8016    0.0000 C   0  0  0  0  0  0  0  0  0  0  0  0
    3.5266    2.5858    0.0000 C   0  0  0  0  0  0  0  0  0  0  0  0
  1 16  1  0
  1 21  1  0
  2  6  1  0
  2  7  1  0
  2 11  1  0
  3  9  1  0
  3 10  1  0
  3 15  1  0
  4 11  1  0
  4 12  1  0
  4 13  1  0
  5 11  2  0
  5 14  1  0
  6  8  1  0
  7  9  1  0
  8 10  1  0
 12 14  2  0
 12 17  1  0
 13 16  1  0
 14 18  1  0
 17 19  2  0
 18 20  2  0
 19 20  1  0
 21 22  1  0
M  END
>  <ALOGPS_LOGP>  (69) 
2.91

>  <ALOGPS_LOGS>  (69) 
-2.32

>  <ALOGPS_SOLUBILITY>  (69) 
1.44e+00 g/l

>  <DATABASE_NAME>  (69) 
drugbank

>  <DRUGBANK_ID>  (69) 
DB01084

>  <DRUG_GROUPS>  (69) 
approved

>  <EXACT_MASS>  (69) 
302.210661474

>  <FORMULA>  (69) 
C17H26N4O

>  <GENERIC_NAME>  (69) 
Emedastine

>  <ID>  (69) 
1084

>  <INCHI_IDENTIFIER>  (69) 
InChI=1S/C17H26N4O/c1-3-22-14-13-21-16-8-5-4-7-15(16)18-17(21)20-10-6-9-19(2)11-12-20/h4-5,7-8H,3,6,9-14H2,1-2H3

>  <INCHI_KEY>  (69) 
KBUZBQVCBVDWKX-UHFFFAOYSA-N

>  <INTERNATIONAL_BRANDS>  (69) 
nan

>  <JCHEM_ACCEPTOR_COUNT>  (69) 
4

>  <JCHEM_ATOM_COUNT>  (69) 
nan

>  <JCHEM_AVERAGE_POLARIZABILITY>  (69) 
35.494199576355825

>  <JCHEM_BIOAVAILABILITY>  (69) 
1

>  <JCHEM_DONOR_COUNT>  (69) 
0

>  <JCHEM_FORMAL_CHARGE>  (69) 
0

>  <JCHEM_GHOSE_FILTER>  (69) 
1

>  <JCHEM_IUPAC>  (69) 
1-(2-ethoxyethyl)-2-(4-methyl-1,4-diazepan-1-yl)-1H-1,3-benzodiazole

>  <JCHEM_LOGP>  (69) 
2.4923856926666663

>  <JCHEM_MDDR_LIKE_RULE>  (69) 
0

>  <JCHEM_NUMBER_OF_RINGS>  (69) 
3

>  <JCHEM_PHYSIOLOGICAL_CHARGE>  (69) 
1

>  <JCHEM_PKA>  (69) 
nan

>  <JCHEM_PKA_STRONGEST_ACIDIC>  (69) 
nan

>  <JCHEM_PKA_STRONGEST_BASIC>  (69) 
8.680268990788557

>  <JCHEM_POLAR_SURFACE_AREA>  (69) 
33.53

>  <JCHEM_REFRACTIVITY>  (69) 
90.47470000000001

>  <JCHEM_ROTATABLE_BOND_COUNT>  (69) 
5

>  <JCHEM_RULE_OF_FIVE>  (69) 
1

>  <JCHEM_TRADITIONAL_IUPAC>  (69) 
emedastine

>  <JCHEM_VEBER_RULE>  (69) 
1

>  <MOLECULAR_WEIGHT>  (69) 
302.4145

>  <PRODUCTS>  (69) 
Emadine

>  <SALTS>  (69) 
Emedastine difumarate

>  <SECONDARY_ACCESSION_NUMBERS>  (69) 
APRD00946

>  <SMILES>  (69) 
CCOCCN1C(=NC2=CC=CC=C12)N1CCCN(C)CC1

>  <SYNONYMS>  (69) 
1-(2-Ethoxy-ethyl)-2-(4-methyl-[1,4]diazepan-1-yl)-1H-benzoimidazole; 1-(2-ethoxyethyl)-2-(hexahydro-4-methyl-1H-1,4-diazepin-1-yl)benzimidazole; 1-[2-(ethoxy)ethyl]-2-(4-methyl-1-homopiperazinyl)benzimidazole; Emedastina; Emedastine; Emedastinum

>  <ECFP_FP>  (69) 
<rdkit.DataStructs.cDataStructs.ExplicitBitVect object at 0xa26659c10>

>  <pki_G>  (69) 
5.889721

>  <pki_D>  (69) 
5.626247

>  <pki_B>  (69) 
5.58327

>  <pki_A>  (69) 
5.693182

>  <SelB>  (69) 
0.30645

>  <SelA>  (69) 
0.196539

>  <SelD>  (69) 
0.263474

>  <AvgABSel>  (69) 
0.251495

>  <MACCS_FP>  (69) 
[0. 0. 0. 0. 0. 0. 0. 0. 0. 0. 0. 0. 0. 0. 0. 0. 0. 0. 0. 1. 0. 0. 0. 0.
 0. 1. 0. 0. 0. 0. 0. 0. 0. 0. 0. 0. 0. 0. 0. 0. 0. 0. 0. 0. 0. 0. 0. 0.
 0. 0. 0. 0. 0. 0. 0. 0. 0. 0. 0. 0. 0. 0. 1. 0. 0. 1. 0. 0. 0. 0. 0. 0.
 0. 0. 0. 1. 0. 1. 0. 1. 1. 0. 0. 1. 0. 1. 1. 0. 0. 0. 0. 0. 0. 1. 0. 1.
 1. 0. 0. 0. 1. 1. 0. 0. 0. 1. 1. 0. 1. 1. 0. 1. 0. 0. 1. 1. 1. 0. 1. 0.
 1. 1. 1. 0. 0. 1. 1. 0. 1. 1. 0. 0. 1. 1. 0. 1. 0. 1. 1. 0. 0. 0. 1. 0.
 1. 0. 0. 1. 1. 1. 1. 0. 0. 1. 0. 1. 1. 1. 1. 0. 1. 1. 1. 1. 1. 1. 0.]

>  <MACCS_pki_G>  (69) 
6.314083

>  <MACCS_pki_D>  (69) 
5.751369

>  <MACCS_pki_B>  (69) 
5.700634

>  <MACCS_pki_A>  (69) 
5.505442

>  <MACCS_SelB>  (69) 
0.613449

>  <MACCS_SelA>  (69) 
0.80864

>  <MACCS_SelD>  (69) 
0.562713

>  <MACCSAvgABSel>  (69) 
0.711044

>  <Pharm2D_FP>  (69) 
[0. 0. 0. ... 0. 0. 0.]

>  <Pharm2D_pki_G>  (69) 
5.778384

>  <Pharm2D_pki_D>  (69) 
5.625718

>  <Pharm2D_pki_B>  (69) 
5.35662

>  <Pharm2D_pki_A>  (69) 
5.221299

>  <Pharm2D_SelB>  (69) 
0.421763

>  <Pharm2D_SelA>  (69) 
0.557084

>  <Pharm2D_SelD>  (69) 
0.152665

>  <Pharm2DAvgABSel>  (69) 
0.489424

>  <QED>  (69) 
0.79311

$$$$
DB15199
     RDKit          2D

 36 36  0  0  1  0  0  0  0  0999 V2000
   -5.7158    2.4750    0.0000 N   0  0  0  0  0  0  0  0  0  0  0  0
   -5.7158    3.3000    0.0000 C   0  0  0  0  0  0  0  0  0  0  0  0
   -6.4302    3.7125    0.0000 C   0  0  0  0  0  0  0  0  0  0  0  0
   -7.1447    3.3000    0.0000 C   0  0  0  0  0  0  0  0  0  0  0  0
   -7.8592    3.7125    0.0000 C   0  0  0  0  0  0  0  0  0  0  0  0
   -8.5737    3.3000    0.0000 N   0  0  0  0  0  0  0  0  0  0  0  0
   -9.2881    3.7125    0.0000 C   0  0  0  0  0  0  0  0  0  0  0  0
  -10.0026    3.3000    0.0000 N   0  0  0  0  0  0  0  0  0  0  0  0
   -9.2881    4.5375    0.0000 N   0  0  0  0  0  0  0  0  0  0  0  0
   -5.0013    3.7125    0.0000 C   0  0  0  0  0  0  0  0  0  0  0  0
   -5.0013    4.5375    0.0000 O   0  0  0  0  0  0  0  0  0  0  0  0
   -4.2868    3.3000    0.0000 N   0  0  0  0  0  0  0  0  0  0  0  0
   -3.5724    3.7125    0.0000 C   0  0  0  0  0  0  0  0  0  0  0  0
   -2.8579    3.3000    0.0000 C   0  0  0  0  0  0  0  0  0  0  0  0
   -2.1434    3.7125    0.0000 C   0  0  0  0  0  0  0  0  0  0  0  0
   -1.4289    3.3000    0.0000 N   0  0  0  0  0  0  0  0  0  0  0  0
   -0.7145    3.7125    0.0000 C   0  0  0  0  0  0  0  0  0  0  0  0
    0.0000    3.3000    0.0000 C   0  0  0  0  0  0  0  0  0  0  0  0
    0.0000    2.4750    0.0000 N   0  0  0  0  0  0  0  0  0  0  0  0
    0.7145    2.0625    0.0000 C   0  0  0  0  0  0  0  0  0  0  0  0
    1.4289    2.4750    0.0000 C   0  0  0  0  0  0  0  0  0  0  0  0
    2.1434    2.0625    0.0000 C   0  0  0  0  0  0  0  0  0  0  0  0
    2.8579    2.4750    0.0000 N   0  0  0  0  0  0  0  0  0  0  0  0
    3.5724    2.0625    0.0000 C   0  0  0  0  0  0  0  0  0  0  0  0
    3.5724    1.2375    0.0000 O   0  0  0  0  0  0  0  0  0  0  0  0
    4.2868    2.4750    0.0000 C   0  0  0  0  0  0  0  0  0  0  0  0
    4.2868    3.3000    0.0000 N   0  0  0  0  0  0  0  0  0  0  0  0
    5.0013    2.0625    0.0000 C   0  0  0  0  0  0  0  0  0  0  0  0
    5.7158    2.4750    0.0000 C   0  0  0  0  0  0  0  0  0  0  0  0
    6.4302    2.0625    0.0000 C   0  0  0  0  0  0  0  0  0  0  0  0
    7.1447    2.4750    0.0000 N   0  0  0  0  0  0  0  0  0  0  0  0
    7.8592    2.0625    0.0000 C   0  0  0  0  0  0  0  0  0  0  0  0
    8.5737    2.4750    0.0000 N   0  0  0  0  0  0  0  0  0  0  0  0
    7.8592    1.2375    0.0000 N   0  0  0  0  0  0  0  0  0  0  0  0
   -0.7145    2.0625    0.0000 C   0  0  0  0  0  0  0  0  0  0  0  0
   -1.4289    2.4750    0.0000 C   0  0  0  0  0  0  0  0  0  0  0  0
  2  1  1  1
  2  3  1  0
  3  4  1  0
  4  5  1  0
  5  6  1  0
  6  7  1  0
  7  8  1  0
  7  9  2  0
  2 10  1  0
 10 11  2  0
 10 12  1  0
 12 13  1  0
 13 14  1  0
 14 15  1  0
 15 16  1  0
 16 17  1  0
 17 18  1  0
 18 19  1  0
 19 20  1  0
 20 21  1  0
 21 22  1  0
 22 23  1  0
 23 24  1  0
 24 25  2  0
 26 24  1  0
 26 27  1  1
 26 28  1  0
 28 29  1  0
 29 30  1  0
 30 31  1  0
 31 32  1  0
 32 33  1  0
 32 34  2  0
 19 35  1  0
 35 36  1  0
 16 36  1  0
M  END
>  <ALOGPS_LOGP>  (70) 
-1.63

>  <ALOGPS_LOGS>  (70) 
-3.43

>  <ALOGPS_SOLUBILITY>  (70) 
1.90e-01 g/l

>  <DATABASE_NAME>  (70) 
drugbank

>  <DRUGBANK_ID>  (70) 
DB15199

>  <DRUG_GROUPS>  (70) 
investigational

>  <EXACT_MASS>  (70) 
512.402318834

>  <FORMULA>  (70) 
C22H48N12O2

>  <GENERIC_NAME>  (70) 
Ciraparantag

>  <ID>  (70) 


>  <INCHI_IDENTIFIER>  (70) 
InChI=1S/C22H48N12O2/c23-17(5-1-7-31-21(25)26)19(35)29-9-3-11-33-13-15-34(16-14-33)12-4-10-30-20(36)18(24)6-2-8-32-22(27)28/h17-18H,1-16,23-24H2,(H,29,35)(H,30,36)(H4,25,26,31)(H4,27,28,32)/t17-,18-/m0/s1

>  <INCHI_KEY>  (70) 
HRDUUSCYRPOMSO-ROUUACIJSA-N

>  <INTERNATIONAL_BRANDS>  (70) 
nan

>  <JCHEM_ACCEPTOR_COUNT>  (70) 
12

>  <JCHEM_ATOM_COUNT>  (70) 
84

>  <JCHEM_AVERAGE_POLARIZABILITY>  (70) 
59.51445394079446

>  <JCHEM_BIOAVAILABILITY>  (70) 
0

>  <JCHEM_DONOR_COUNT>  (70) 
10

>  <JCHEM_FORMAL_CHARGE>  (70) 
0

>  <JCHEM_GHOSE_FILTER>  (70) 
0

>  <JCHEM_IUPAC>  (70) 
(2S)-2-amino-N-[3-(4-{3-[(2S)-2-amino-5-carbamimidamidopentanamido]propyl}piperazin-1-yl)propyl]-5-carbamimidamidopentanamide

>  <JCHEM_LOGP>  (70) 
-4.330277297333333

>  <JCHEM_MDDR_LIKE_RULE>  (70) 
0

>  <JCHEM_NUMBER_OF_RINGS>  (70) 
1

>  <JCHEM_PHYSIOLOGICAL_CHARGE>  (70) 
5

>  <JCHEM_PKA>  (70) 
nan

>  <JCHEM_PKA_STRONGEST_ACIDIC>  (70) 
nan

>  <JCHEM_PKA_STRONGEST_BASIC>  (70) 
12.505220212154928

>  <JCHEM_POLAR_SURFACE_AREA>  (70) 
240.51999999999998

>  <JCHEM_REFRACTIVITY>  (70) 
163.11499999999995

>  <JCHEM_ROTATABLE_BOND_COUNT>  (70) 
18

>  <JCHEM_RULE_OF_FIVE>  (70) 
0

>  <JCHEM_TRADITIONAL_IUPAC>  (70) 
(2R)-14-fluoro-2-methyl-6,9,10,19-tetraazapentacyclo[14.2.1.0^{2,6}.0^{8,18}.0^{12,17}]nonadeca-1(18),8,12(17),13,15-pentaen-11-one

>  <JCHEM_VEBER_RULE>  (70) 
0

>  <MOLECULAR_WEIGHT>  (70) 
512.708

>  <PRODUCTS>  (70) 
nan

>  <SALTS>  (70) 
nan

>  <SECONDARY_ACCESSION_NUMBERS>  (70) 
nan

>  <SMILES>  (70) 
N[C@@H](CCCNC(N)=N)C(=O)NCCCN1CCN(CCCNC(=O)[C@@H](N)CCCNC(N)=N)CC1

>  <SYNONYMS>  (70) 
nan

>  <ECFP_FP>  (70) 
<rdkit.DataStructs.cDataStructs.ExplicitBitVect object at 0xa26d54b70>

>  <pki_G>  (70) 
5.883072

>  <pki_D>  (70) 
5.905571

>  <pki_B>  (70) 
5.413543

>  <pki_A>  (70) 
5.85526

>  <SelB>  (70) 
0.469529

>  <SelA>  (70) 
0.027811

>  <SelD>  (70) 
-0.022499

>  <AvgABSel>  (70) 
0.24867

>  <MACCS_FP>  (70) 
[0. 0. 0. 0. 0. 0. 0. 0. 0. 0. 0. 0. 0. 0. 0. 0. 0. 0. 0. 0. 0. 0. 0. 0.
 0. 1. 0. 0. 0. 0. 0. 0. 0. 0. 0. 0. 0. 0. 0. 0. 0. 0. 0. 1. 0. 0. 0. 0.
 0. 0. 0. 0. 0. 0. 1. 0. 0. 0. 0. 0. 0. 0. 0. 0. 0. 0. 0. 0. 0. 0. 0. 0.
 0. 0. 0. 1. 0. 1. 1. 1. 1. 0. 1. 0. 1. 1. 1. 0. 0. 0. 1. 1. 1. 0. 0. 1.
 0. 0. 1. 0. 1. 0. 0. 0. 1. 0. 1. 0. 0. 0. 1. 1. 0. 0. 0. 0. 0. 1. 1. 1.
 1. 1. 1. 0. 0. 0. 0. 0. 1. 1. 0. 1. 0. 0. 0. 0. 1. 1. 1. 0. 0. 0. 1. 0.
 0. 0. 0. 1. 1. 0. 0. 1. 0. 1. 1. 1. 1. 0. 1. 1. 0. 1. 0. 1. 1. 1. 0.]

>  <MACCS_pki_G>  (70) 
5.911794

>  <MACCS_pki_D>  (70) 
6.027646

>  <MACCS_pki_B>  (70) 
5.413743

>  <MACCS_pki_A>  (70) 
5.456028

>  <MACCS_SelB>  (70) 
0.498051

>  <MACCS_SelA>  (70) 
0.455766

>  <MACCS_SelD>  (70) 
-0.115853

>  <MACCSAvgABSel>  (70) 
0.476908

>  <Pharm2D_FP>  (70) 
[0. 0. 0. ... 0. 0. 0.]

>  <Pharm2D_pki_G>  (70) 
6.319062

>  <Pharm2D_pki_D>  (70) 
5.734544

>  <Pharm2D_pki_B>  (70) 
5.703626

>  <Pharm2D_pki_A>  (70) 
5.115357

>  <Pharm2D_SelB>  (70) 
0.615437

>  <Pharm2D_SelA>  (70) 
1.203705

>  <Pharm2D_SelD>  (70) 
0.584519

>  <Pharm2DAvgABSel>  (70) 
0.909571

>  <QED>  (70) 
0.050052

$$$$
DB06091
     RDKit          2D

 21 21  0  0  0  0  0  0  0  0999 V2000
    0.5678    1.9393    0.0000 C   0  0  0  0  0  0  0  0  0  0  0  0
    0.5678    1.1143    0.0000 N   0  0  0  0  0  0  0  0  0  0  0  0
    1.2352    0.6294    0.0000 C   0  0  0  0  0  0  0  0  0  0  0  0
    0.9803   -0.1553    0.0000 C   0  0  0  0  0  0  0  0  0  0  0  0
    0.1553   -0.1553    0.0000 N   0  0  0  0  0  0  0  0  0  0  0  0
   -0.0997    0.6294    0.0000 C   0  0  0  0  0  0  0  0  0  0  0  0
   -0.8843    0.8843    0.0000 N   0  0  0  0  0  0  0  0  0  0  0  0
   -1.4974    0.3323    0.0000 O   0  0  0  0  0  0  0  0  0  0  0  0
   -1.0558    1.6913    0.0000 O   0  0  0  0  0  0  0  0  0  0  0  0
    2.0198    0.8843    0.0000 C   0  0  0  0  0  0  0  0  0  0  0  0
    2.1913    1.6913    0.0000 O   0  0  0  0  0  0  0  0  0  0  0  0
    2.9760    1.9462    0.0000 P   0  0  0  0  0  0  0  0  0  0  0  0
    3.2309    1.1616    0.0000 O   0  0  0  0  0  0  0  0  0  0  0  0
    3.7606    2.2012    0.0000 N   0  0  0  0  0  0  0  0  0  0  0  0
    4.3737    1.6491    0.0000 C   0  0  0  0  0  0  0  0  0  0  0  0
    4.2022    0.8421    0.0000 C   0  0  0  0  0  0  0  0  0  0  0  0
    4.8153    0.2901    0.0000 Br  0  0  0  0  0  0  0  0  0  0  0  0
    2.7210    2.7308    0.0000 N   0  0  0  0  0  0  0  0  0  0  0  0
    3.2731    3.3439    0.0000 C   0  0  0  0  0  0  0  0  0  0  0  0
    4.0800    3.1724    0.0000 C   0  0  0  0  0  0  0  0  0  0  0  0
    4.6321    3.7855    0.0000 Br  0  0  0  0  0  0  0  0  0  0  0  0
  1  2  1  0
  2  3  1  0
  3  4  2  0
  4  5  1  0
  5  6  2  0
  2  6  1  0
  6  7  1  0
  7  8  2  0
  7  9  1  0
  3 10  1  0
 10 11  1  0
 11 12  1  0
 12 13  2  0
 12 14  1  0
 14 15  1  0
 15 16  1  0
 16 17  1  0
 12 18  1  0
 18 19  1  0
 19 20  1  0
 20 21  1  0
M  CHG  2   7   1   9  -1
M  END
>  <ALOGPS_LOGP>  (71) 
0.89

>  <ALOGPS_LOGS>  (71) 
-3.19

>  <ALOGPS_SOLUBILITY>  (71) 
2.92e-01 g/l

>  <DATABASE_NAME>  (71) 
drugbank

>  <DRUGBANK_ID>  (71) 
DB06091

>  <DRUG_GROUPS>  (71) 
investigational

>  <EXACT_MASS>  (71) 
446.930667

>  <FORMULA>  (71) 
C9H16Br2N5O4P

>  <GENERIC_NAME>  (71) 
Evofosfamide

>  <ID>  (71) 


>  <INCHI_IDENTIFIER>  (71) 
InChI=1S/C9H16Br2N5O4P/c1-15-8(6-12-9(15)16(17)18)7-20-21(19,13-4-2-10)14-5-3-11/h6H,2-5,7H2,1H3,(H2,13,14,19)

>  <INCHI_KEY>  (71) 
UGJWRPJDTDGERK-UHFFFAOYSA-N

>  <INTERNATIONAL_BRANDS>  (71) 
nan

>  <JCHEM_ACCEPTOR_COUNT>  (71) 
5

>  <JCHEM_ATOM_COUNT>  (71) 
37

>  <JCHEM_AVERAGE_POLARIZABILITY>  (71) 
34.56165220620133

>  <JCHEM_BIOAVAILABILITY>  (71) 
1

>  <JCHEM_DONOR_COUNT>  (71) 
2

>  <JCHEM_FORMAL_CHARGE>  (71) 
0

>  <JCHEM_GHOSE_FILTER>  (71) 
1

>  <JCHEM_IUPAC>  (71) 
(2-bromoethyl)({[(2-bromoethyl)amino][(1-methyl-2-nitro-1H-imidazol-5-yl)methoxy]phosphoryl})amine

>  <JCHEM_LOGP>  (71) 
0.7293418286666671

>  <JCHEM_MDDR_LIKE_RULE>  (71) 
0

>  <JCHEM_NUMBER_OF_RINGS>  (71) 
1

>  <JCHEM_PHYSIOLOGICAL_CHARGE>  (71) 
0

>  <JCHEM_PKA>  (71) 
nan

>  <JCHEM_PKA_STRONGEST_ACIDIC>  (71) 
13.894595701832351

>  <JCHEM_PKA_STRONGEST_BASIC>  (71) 
-0.1395542619637582

>  <JCHEM_POLAR_SURFACE_AREA>  (71) 
111.32

>  <JCHEM_REFRACTIVITY>  (71) 
84.78739999999999

>  <JCHEM_ROTATABLE_BOND_COUNT>  (71) 
10

>  <JCHEM_RULE_OF_FIVE>  (71) 
1

>  <JCHEM_TRADITIONAL_IUPAC>  (71) 
evofosfamide

>  <JCHEM_VEBER_RULE>  (71) 
0

>  <MOLECULAR_WEIGHT>  (71) 
449.04

>  <PRODUCTS>  (71) 
nan

>  <SALTS>  (71) 
nan

>  <SECONDARY_ACCESSION_NUMBERS>  (71) 
nan

>  <SMILES>  (71) 
CN1C(COP(=O)(NCCBr)NCCBr)=CN=C1[N+]([O-])=O

>  <SYNONYMS>  (71) 
nan

>  <ECFP_FP>  (71) 
<rdkit.DataStructs.cDataStructs.ExplicitBitVect object at 0xa269ec8f0>

>  <pki_G>  (71) 
5.879026

>  <pki_D>  (71) 
5.872884

>  <pki_B>  (71) 
5.394749

>  <pki_A>  (71) 
5.492986

>  <SelB>  (71) 
0.484277

>  <SelA>  (71) 
0.38604

>  <SelD>  (71) 
0.006142

>  <AvgABSel>  (71) 
0.435158

>  <MACCS_FP>  (71) 
[0. 0. 0. 0. 0. 0. 0. 0. 0. 0. 0. 0. 0. 0. 0. 0. 0. 0. 0. 0. 0. 0. 0. 0.
 1. 1. 0. 0. 0. 1. 0. 0. 0. 0. 0. 0. 0. 0. 0. 0. 0. 0. 0. 1. 0. 0. 1. 0.
 0. 1. 0. 0. 0. 0. 0. 0. 1. 0. 0. 0. 0. 0. 0. 1. 0. 1. 0. 0. 0. 1. 1. 1.
 0. 0. 0. 1. 0. 1. 0. 1. 0. 0. 1. 1. 0. 1. 0. 0. 0. 0. 1. 1. 0. 1. 1. 1.
 1. 1. 0. 0. 1. 0. 1. 0. 1. 0. 1. 0. 0. 1. 0. 1. 1. 0. 0. 0. 1. 1. 1. 1.
 1. 1. 1. 0. 1. 0. 1. 0. 1. 0. 1. 1. 0. 1. 1. 1. 1. 1. 1. 0. 1. 0. 1. 0.
 1. 0. 1. 1. 1. 0. 1. 1. 0. 1. 0. 1. 1. 1. 1. 1. 1. 1. 1. 0. 1. 1. 0.]

>  <MACCS_pki_G>  (71) 
6.484567

>  <MACCS_pki_D>  (71) 
5.934849

>  <MACCS_pki_B>  (71) 
5.840576

>  <MACCS_pki_A>  (71) 
5.921601

>  <MACCS_SelB>  (71) 
0.643991

>  <MACCS_SelA>  (71) 
0.562966

>  <MACCS_SelD>  (71) 
0.549718

>  <MACCSAvgABSel>  (71) 
0.603478

>  <Pharm2D_FP>  (71) 
[0. 0. 0. ... 0. 0. 0.]

>  <Pharm2D_pki_G>  (71) 
5.736474

>  <Pharm2D_pki_D>  (71) 
5.339884

>  <Pharm2D_pki_B>  (71) 
5.365841

>  <Pharm2D_pki_A>  (71) 
5.027684

>  <Pharm2D_SelB>  (71) 
0.370633

>  <Pharm2D_SelA>  (71) 
0.70879

>  <Pharm2D_SelD>  (71) 
0.39659

>  <Pharm2DAvgABSel>  (71) 
0.539711

>  <QED>  (71) 
0.243185

$$$$
DB06669
     RDKit          2D

 32 33  0  0  1  0  0  0  0  0999 V2000
   -0.7145   -2.2836    0.0000 C   0  0  0  0  0  0  0  0  0  0  0  0
   -0.3020   -2.9980    0.0000 C   0  0  0  0  0  0  0  0  0  0  0  0
    0.5230   -2.9980    0.0000 C   0  0  0  0  0  0  0  0  0  0  0  0
   -0.7145   -3.7125    0.0000 C   0  0  0  0  0  0  0  0  0  0  0  0
    0.0000   -4.1250    0.0000 C   0  0  0  0  0  0  0  0  0  0  0  0
    0.7145   -3.7125    0.0000 C   0  0  0  0  0  0  0  0  0  0  0  0
    1.4289   -4.1250    0.0000 C   0  0  0  0  0  0  0  0  0  0  0  0
    2.1434   -3.7125    0.0000 N   0  0  0  0  0  0  0  0  0  0  0  0
    2.8579   -4.1250    0.0000 C   0  0  0  0  0  0  0  0  0  0  0  0
    3.5724   -3.7125    0.0000 C   0  0  0  0  0  0  0  0  0  0  0  0
    4.2868   -4.1250    0.0000 C   0  0  0  0  0  0  0  0  0  0  0  0
    5.0013   -3.7125    0.0000 C   0  0  0  0  0  0  0  0  0  0  0  0
    5.7158   -4.1250    0.0000 C   0  0  0  0  0  0  0  0  0  0  0  0
    5.7158   -4.9500    0.0000 C   0  0  0  0  0  0  0  0  0  0  0  0
    5.0013   -5.3625    0.0000 C   0  0  0  0  0  0  0  0  0  0  0  0
    4.2868   -4.9500    0.0000 C   0  0  0  0  0  0  0  0  0  0  0  0
    5.0013   -6.1875    0.0000 O   0  0  0  0  0  0  0  0  0  0  0  0
    4.2868   -6.6000    0.0000 C   0  0  0  0  0  0  0  0  0  0  0  0
    6.4302   -5.3625    0.0000 O   0  0  0  0  0  0  0  0  0  0  0  0
    6.4302   -6.1875    0.0000 C   0  0  0  0  0  0  0  0  0  0  0  0
   -1.1270   -4.4270    0.0000 C   0  0  0  0  0  0  0  0  0  0  0  0
   -1.5395   -5.1414    0.0000 N   0  0  0  0  0  0  0  0  0  0  0  0
   -1.4289   -3.3000    0.0000 C   0  0  0  0  0  0  0  0  0  0  0  0
   -2.1434   -3.7125    0.0000 C   0  0  0  0  0  0  0  0  0  0  0  0
   -2.8579   -3.3000    0.0000 C   0  0  0  0  0  0  0  0  0  0  0  0
   -2.8579   -2.4750    0.0000 C   0  0  0  0  0  0  0  0  0  0  0  0
   -2.1434   -2.0625    0.0000 C   0  0  0  0  0  0  0  0  0  0  0  0
   -1.4289   -2.4750    0.0000 C   0  0  0  0  0  0  0  0  0  0  0  0
   -2.1434   -1.2375    0.0000 O   0  0  0  0  0  0  0  0  0  0  0  0
   -1.4289   -0.8250    0.0000 C   0  0  0  0  0  0  0  0  0  0  0  0
   -3.5724   -2.0625    0.0000 O   0  0  0  0  0  0  0  0  0  0  0  0
   -4.2868   -2.4750    0.0000 C   0  0  0  0  0  0  0  0  0  0  0  0
  1  2  1  0
  2  3  1  0
  2  4  1  0
  4  5  1  6
  5  6  1  0
  6  7  1  0
  7  8  1  0
  8  9  1  0
  9 10  1  0
 10 11  1  0
 11 12  2  0
 12 13  1  0
 13 14  2  0
 14 15  1  0
 15 16  2  0
 11 16  1  0
 15 17  1  0
 17 18  1  0
 14 19  1  0
 19 20  1  0
  4 21  1  0
 21 22  3  0
  4 23  1  0
 23 24  2  0
 24 25  1  0
 25 26  2  0
 26 27  1  0
 27 28  2  0
 23 28  1  0
 27 29  1  0
 29 30  1  0
 26 31  1  0
 31 32  1  0
M  END
>  <ALOGPS_LOGP>  (72) 
4.41

>  <ALOGPS_LOGS>  (72) 
-5.18

>  <ALOGPS_SOLUBILITY>  (72) 
2.93e-03 g/l

>  <DATABASE_NAME>  (72) 
drugbank

>  <DRUGBANK_ID>  (72) 
DB06669

>  <DRUG_GROUPS>  (72) 
investigational

>  <EXACT_MASS>  (72) 
440.267507647

>  <FORMULA>  (72) 
C26H36N2O4

>  <GENERIC_NAME>  (72) 
Arverapamil

>  <ID>  (72) 


>  <INCHI_IDENTIFIER>  (72) 
InChI=1S/C26H36N2O4/c1-19(2)26(18-27,21-9-11-23(30-4)25(17-21)32-6)13-7-14-28-15-12-20-8-10-22(29-3)24(16-20)31-5/h8-11,16-17,19,28H,7,12-15H2,1-6H3/t26-/m1/s1

>  <INCHI_KEY>  (72) 
UPKQNCPKPOLASS-AREMUKBSSA-N

>  <INTERNATIONAL_BRANDS>  (72) 
Rezular

>  <JCHEM_ACCEPTOR_COUNT>  (72) 
6

>  <JCHEM_ATOM_COUNT>  (72) 
68

>  <JCHEM_AVERAGE_POLARIZABILITY>  (72) 
50.95948529606995

>  <JCHEM_BIOAVAILABILITY>  (72) 
1

>  <JCHEM_DONOR_COUNT>  (72) 
1

>  <JCHEM_FORMAL_CHARGE>  (72) 
0

>  <JCHEM_GHOSE_FILTER>  (72) 
1

>  <JCHEM_IUPAC>  (72) 
(2R)-2-(3,4-dimethoxyphenyl)-5-{[2-(3,4-dimethoxyphenyl)ethyl]amino}-2-(propan-2-yl)pentanenitrile

>  <JCHEM_LOGP>  (72) 
4.660137883666668

>  <JCHEM_MDDR_LIKE_RULE>  (72) 
0

>  <JCHEM_NUMBER_OF_RINGS>  (72) 
2

>  <JCHEM_PHYSIOLOGICAL_CHARGE>  (72) 
1

>  <JCHEM_PKA>  (72) 
nan

>  <JCHEM_PKA_STRONGEST_ACIDIC>  (72) 
nan

>  <JCHEM_PKA_STRONGEST_BASIC>  (72) 
10.291138570478047

>  <JCHEM_POLAR_SURFACE_AREA>  (72) 
72.74000000000001

>  <JCHEM_REFRACTIVITY>  (72) 
127.35319999999999

>  <JCHEM_ROTATABLE_BOND_COUNT>  (72) 
13

>  <JCHEM_RULE_OF_FIVE>  (72) 
1

>  <JCHEM_TRADITIONAL_IUPAC>  (72) 
(2R)-2-(3,4-dimethoxyphenyl)-5-{[2-(3,4-dimethoxyphenyl)ethyl]amino}-2-isopropylpentanenitrile

>  <JCHEM_VEBER_RULE>  (72) 
0

>  <MOLECULAR_WEIGHT>  (72) 
440.584

>  <PRODUCTS>  (72) 
nan

>  <SALTS>  (72) 
nan

>  <SECONDARY_ACCESSION_NUMBERS>  (72) 
nan

>  <SMILES>  (72) 
COC1=CC=C(CCNCCC[C@@](C#N)(C(C)C)C2=CC=C(OC)C(OC)=C2)C=C1OC

>  <SYNONYMS>  (72) 
(R)-norverapamil

>  <ECFP_FP>  (72) 
<rdkit.DataStructs.cDataStructs.ExplicitBitVect object at 0xa26a163a0>

>  <pki_G>  (72) 
5.874119

>  <pki_D>  (72) 
5.810063

>  <pki_B>  (72) 
5.50777

>  <pki_A>  (72) 
5.759332

>  <SelB>  (72) 
0.366349

>  <SelA>  (72) 
0.114787

>  <SelD>  (72) 
0.064056

>  <AvgABSel>  (72) 
0.240568

>  <MACCS_FP>  (72) 
[0. 0. 0. 0. 0. 0. 0. 0. 0. 0. 0. 0. 0. 0. 0. 0. 0. 0. 0. 0. 0. 0. 0. 0.
 0. 0. 0. 0. 0. 0. 0. 0. 0. 0. 0. 0. 0. 0. 0. 0. 0. 1. 0. 0. 0. 0. 0. 0.
 0. 0. 0. 0. 0. 0. 0. 0. 0. 0. 0. 0. 0. 0. 0. 0. 0. 0. 1. 0. 0. 0. 0. 0.
 1. 0. 1. 0. 0. 0. 0. 0. 0. 0. 1. 0. 0. 0. 1. 0. 0. 0. 1. 0. 0. 1. 0. 0.
 0. 0. 0. 0. 1. 0. 0. 0. 1. 0. 0. 0. 1. 0. 0. 1. 1. 1. 0. 0. 1. 0. 1. 0.
 0. 0. 0. 0. 0. 1. 1. 1. 1. 1. 0. 0. 0. 0. 0. 0. 0. 0. 1. 0. 1. 1. 1. 1.
 1. 1. 1. 1. 0. 1. 1. 1. 1. 1. 0. 1. 0. 1. 1. 1. 1. 1. 1. 1. 1. 1. 0.]

>  <MACCS_pki_G>  (72) 
5.708378

>  <MACCS_pki_D>  (72) 
5.837783

>  <MACCS_pki_B>  (72) 
5.720328

>  <MACCS_pki_A>  (72) 
6.11225

>  <MACCS_SelB>  (72) 
-0.01195

>  <MACCS_SelA>  (72) 
-0.403872

>  <MACCS_SelD>  (72) 
-0.129405

>  <MACCSAvgABSel>  (72) 
-0.207911

>  <Pharm2D_FP>  (72) 
[0. 0. 0. ... 0. 0. 0.]

>  <Pharm2D_pki_G>  (72) 
6.010657

>  <Pharm2D_pki_D>  (72) 
5.422801

>  <Pharm2D_pki_B>  (72) 
5.330463

>  <Pharm2D_pki_A>  (72) 
5.483608

>  <Pharm2D_SelB>  (72) 
0.680195

>  <Pharm2D_SelA>  (72) 
0.527049

>  <Pharm2D_SelD>  (72) 
0.587857

>  <Pharm2DAvgABSel>  (72) 
0.603622

>  <QED>  (72) 
0.453262

$$$$
DB03010
     RDKit          2D

 35 37  0  0  1  0  0  0  0  0999 V2000
    3.3048   -1.1701    0.0000 C   0  0  0  0  0  0  0  0  0  0  0  0
    0.5310    2.9297    0.0000 C   0  0  0  0  0  0  0  0  0  0  0  0
    4.4883   -0.3693    0.0000 C   0  0  0  0  0  0  0  0  0  0  0  0
    0.9100    6.5209    0.0000 C   0  0  0  0  0  0  0  0  0  0  0  0
    4.6775    2.0759    0.0000 C   0  0  0  0  0  0  0  0  0  0  0  0
    4.7177    1.5130    0.0000 C   0  0  0  0  0  0  0  0  0  0  0  0
   -0.4112    0.3001    0.0000 C   0  0  0  0  0  0  0  0  0  0  0  0
    1.5573    0.1378    0.0000 C   0  0  0  0  0  0  0  0  0  0  0  0
    2.0196   -0.5455    0.0000 C   0  0  0  0  0  0  0  0  0  0  0  0
    0.7344    0.0791    0.0000 C   0  0  0  0  0  0  0  0  0  0  0  0
    1.7145    3.7305    0.0000 C   0  0  0  0  0  0  0  0  0  0  0  0
    1.4556    1.5631    0.0000 C   0  0  0  0  0  0  0  0  0  0  0  0
    3.8226    3.1646    0.0000 C   0  0  0  0  0  0  0  0  0  0  0  0
    0.4276    4.4414    0.0000 C   0  0  0  0  0  0  0  0  0  0  0  0
    2.8425   -0.4868    0.0000 C   0  0  0  0  0  0  0  0  0  0  0  0
    1.3539    2.9885    0.0000 C   0  0  0  0  0  0  0  0  0  0  0  0
    4.0260    0.3140    0.0000 C   0  0  0  0  0  0  0  0  0  0  0  0
    0.8824    5.6964    0.0000 C   0  0  0  0  0  0  0  0  0  0  0  0
    1.2522    4.4138    0.0000 C   0  0  0  0  0  0  0  0  0  0  0  0
    1.8162    2.3052    0.0000 C   0  0  0  0  0  0  0  0  0  0  0  0
    4.2849    2.4813    0.0000 C   0  0  0  0  0  0  0  0  0  0  0  0
    0.6327    1.5044    0.0000 C   0  0  0  0  0  0  0  0  0  0  0  0
    2.9997    3.1059    0.0000 C   0  0  0  0  0  0  0  0  0  0  0  0
    3.2031    0.2553    0.0000 C   0  0  0  0  0  0  0  0  0  0  0  0
    4.3866    1.0560    0.0000 C   0  0  0  0  0  0  0  0  0  0  0  0
    3.9243    1.7393    0.0000 C   0  0  0  0  0  0  0  0  0  0  0  0
    0.2721    0.7624    0.0000 C   0  0  0  0  0  0  0  0  0  0  0  0
    1.5332    5.1894    0.0000 N   0  0  0  0  0  0  0  0  0  0  0  0
    5.1078    2.5400    0.0000 O   0  0  0  0  0  0  0  0  0  0  0  0
    2.5374    3.7892    0.0000 O   0  0  0  0  0  0  0  0  0  0  0  0
    3.6654   -0.4280    0.0000 O   0  0  0  0  0  0  0  0  0  0  0  0
    5.2095    1.1147    0.0000 O   0  0  0  0  0  0  0  0  0  0  0  0
    2.6391    2.3639    0.0000 O   0  0  0  0  0  0  0  0  0  0  0  0
   -0.1902    1.4457    0.0000 O   0  0  0  0  0  0  0  0  0  0  0  0
    0.1991    5.2341    0.0000 S   0  0  0  0  0  0  0  0  0  0  0  0
  9  8  1  0
 10  8  1  0
 15  1  1  1
 15  9  1  0
 16  2  1  0
 16 11  2  0
 17  3  1  6
 18  4  1  0
 19 11  1  0
 19 14  2  0
 20 12  1  0
 20 16  1  1
 21 13  1  0
 22 12  1  1
 23 13  1  0
 24 15  1  0
 24 17  1  0
 25 17  1  0
 26  5  1  0
 26  6  1  0
 26 21  1  0
 26 25  1  0
 27  7  1  6
 27 10  1  0
 27 22  1  0
 28 18  2  0
 28 19  1  0
 21 29  1  6
 30 23  2  0
 24 31  1  6
 32 25  2  0
 33 20  1  0
 33 23  1  0
 34 22  1  0
 34 27  1  0
 35 14  1  0
 35 18  1  0
M  END
>  <ALOGPS_LOGP>  (73) 
3.7

>  <ALOGPS_LOGS>  (73) 
-5.17

>  <ALOGPS_SOLUBILITY>  (73) 
3.42e-03 g/l

>  <DATABASE_NAME>  (73) 
drugbank

>  <DRUGBANK_ID>  (73) 
DB03010

>  <DRUG_GROUPS>  (73) 
experimental; investigational

>  <EXACT_MASS>  (73) 
507.265458739

>  <FORMULA>  (73) 
C27H41NO6S

>  <GENERIC_NAME>  (73) 
Patupilone

>  <ID>  (73) 


>  <INCHI_IDENTIFIER>  (73) 
InChI=1S/C27H41NO6S/c1-15-9-8-10-27(7)22(34-27)12-20(16(2)11-19-14-35-18(4)28-19)33-23(30)13-21(29)26(5,6)25(32)17(3)24(15)31/h11,14-15,17,20-22,24,29,31H,8-10,12-13H2,1-7H3/b16-11+/t15-,17+,20-,21-,22-,24-,27+/m0/s1

>  <INCHI_KEY>  (73) 
QXRSDHAAWVKZLJ-PVYNADRNSA-N

>  <INTERNATIONAL_BRANDS>  (73) 
nan

>  <JCHEM_ACCEPTOR_COUNT>  (73) 
6

>  <JCHEM_ATOM_COUNT>  (73) 
nan

>  <JCHEM_AVERAGE_POLARIZABILITY>  (73) 
56.10986528270468

>  <JCHEM_BIOAVAILABILITY>  (73) 
1

>  <JCHEM_DONOR_COUNT>  (73) 
2

>  <JCHEM_FORMAL_CHARGE>  (73) 
0

>  <JCHEM_GHOSE_FILTER>  (73) 
0

>  <JCHEM_IUPAC>  (73) 
(1S,3S,7S,10R,11S,12S,16R)-7,11-dihydroxy-8,8,10,12,16-pentamethyl-3-[(1E)-1-(2-methyl-1,3-thiazol-4-yl)prop-1-en-2-yl]-4,17-dioxabicyclo[14.1.0]heptadecane-5,9-dione

>  <JCHEM_LOGP>  (73) 
4.122733758333332

>  <JCHEM_MDDR_LIKE_RULE>  (73) 
0

>  <JCHEM_NUMBER_OF_RINGS>  (73) 
3

>  <JCHEM_PHYSIOLOGICAL_CHARGE>  (73) 
0

>  <JCHEM_PKA>  (73) 
14.72757532733004

>  <JCHEM_PKA_STRONGEST_ACIDIC>  (73) 
14.0869288556428

>  <JCHEM_PKA_STRONGEST_BASIC>  (73) 
2.7263326959867302

>  <JCHEM_POLAR_SURFACE_AREA>  (73) 
109.25000000000001

>  <JCHEM_REFRACTIVITY>  (73) 
134.75999999999996

>  <JCHEM_ROTATABLE_BOND_COUNT>  (73) 
2

>  <JCHEM_RULE_OF_FIVE>  (73) 
0

>  <JCHEM_TRADITIONAL_IUPAC>  (73) 
epothilone B

>  <JCHEM_VEBER_RULE>  (73) 
0

>  <MOLECULAR_WEIGHT>  (73) 
507.683

>  <PRODUCTS>  (73) 
nan

>  <SALTS>  (73) 
nan

>  <SECONDARY_ACCESSION_NUMBERS>  (73) 
EXPT01349

>  <SMILES>  (73) 
[H]\C(=C(\C)[C@]1([H])C[C@]2([H])O[C@]2(C)CCC[C@]([H])(C)[C@]([H])(O)[C@@]([H])(C)C(=O)C(C)(C)[C@@]([H])(O)CC(=O)O1)C1=CSC(C)=N1

>  <SYNONYMS>  (73) 
(−)-epothilone B; Epo B; Epothilone B; patupilona

>  <ECFP_FP>  (73) 
<rdkit.DataStructs.cDataStructs.ExplicitBitVect object at 0xa26792c60>

>  <pki_G>  (73) 
5.866631

>  <pki_D>  (73) 
5.78595

>  <pki_B>  (73) 
5.278515

>  <pki_A>  (73) 
4.687805

>  <SelB>  (73) 
0.588116

>  <SelA>  (73) 
1.178826

>  <SelD>  (73) 
0.080681

>  <AvgABSel>  (73) 
0.883471

>  <MACCS_FP>  (73) 
[0. 0. 0. 0. 0. 0. 0. 0. 0. 0. 0. 0. 0. 0. 0. 0. 1. 0. 0. 0. 0. 0. 1. 0.
 0. 0. 0. 0. 0. 0. 0. 0. 0. 0. 0. 0. 1. 0. 0. 0. 0. 0. 0. 0. 0. 0. 0. 1.
 0. 0. 1. 0. 0. 0. 0. 0. 0. 1. 0. 0. 0. 0. 0. 0. 0. 1. 1. 0. 0. 0. 0. 0.
 0. 0. 1. 0. 1. 0. 0. 0. 0. 1. 0. 1. 0. 0. 0. 0. 1. 1. 1. 1. 0. 0. 0. 0.
 1. 0. 0. 1. 0. 0. 0. 0. 1. 1. 0. 0. 1. 0. 0. 0. 1. 0. 0. 1. 1. 0. 1. 0.
 1. 1. 0. 1. 0. 0. 0. 1. 1. 1. 0. 1. 1. 0. 0. 0. 1. 1. 0. 1. 1. 1. 0. 1.
 0. 0. 1. 1. 0. 1. 1. 0. 1. 0. 1. 0. 1. 1. 0. 1. 1. 1. 1. 0. 1. 1. 0.]

>  <MACCS_pki_G>  (73) 
5.925789

>  <MACCS_pki_D>  (73) 
5.83427

>  <MACCS_pki_B>  (73) 
5.535333

>  <MACCS_pki_A>  (73) 
5.550652

>  <MACCS_SelB>  (73) 
0.390456

>  <MACCS_SelA>  (73) 
0.375138

>  <MACCS_SelD>  (73) 
0.091519

>  <MACCSAvgABSel>  (73) 
0.382797

>  <Pharm2D_FP>  (73) 
[0. 0. 0. ... 0. 0. 0.]

>  <Pharm2D_pki_G>  (73) 
6.036593

>  <Pharm2D_pki_D>  (73) 
5.5274

>  <Pharm2D_pki_B>  (73) 
5.32523

>  <Pharm2D_pki_A>  (73) 
5.281905

>  <Pharm2D_SelB>  (73) 
0.711363

>  <Pharm2D_SelA>  (73) 
0.754688

>  <Pharm2D_SelD>  (73) 
0.509193

>  <Pharm2DAvgABSel>  (73) 
0.733025

>  <QED>  (73) 
0.448689

$$$$
DB11770
     RDKit          2D

 26 27  0  0  0  0  0  0  0  0999 V2000
    0.7145    7.8375    0.0000 C   0  0  0  0  0  0  0  0  0  0  0  0
   -0.1105    7.0125    0.0000 C   0  0  0  0  0  0  0  0  0  0  0  0
    1.5395    7.0125    0.0000 C   0  0  0  0  0  0  0  0  0  0  0  0
   -2.8579   -1.6500    0.0000 C   0  0  0  0  0  0  0  0  0  0  0  0
   -2.1434   -1.2375    0.0000 C   0  0  0  0  0  0  0  0  0  0  0  0
   -3.5724   -1.2375    0.0000 C   0  0  0  0  0  0  0  0  0  0  0  0
   -2.1434   -0.4125    0.0000 C   0  0  0  0  0  0  0  0  0  0  0  0
   -3.5724   -0.4125    0.0000 C   0  0  0  0  0  0  0  0  0  0  0  0
   -2.1434    2.0625    0.0000 C   0  0  0  0  0  0  0  0  0  0  0  0
   -2.8579    3.3000    0.0000 C   0  0  0  0  0  0  0  0  0  0  0  0
   -1.4289    2.4750    0.0000 C   0  0  0  0  0  0  0  0  0  0  0  0
   -2.1434    3.7125    0.0000 C   0  0  0  0  0  0  0  0  0  0  0  0
    0.0000    5.7750    0.0000 C   0  0  0  0  0  0  0  0  0  0  0  0
   -0.7145    4.5375    0.0000 C   0  0  0  0  0  0  0  0  0  0  0  0
   -2.8579    0.0000    0.0000 C   0  0  0  0  0  0  0  0  0  0  0  0
   -2.8579    2.4750    0.0000 C   0  0  0  0  0  0  0  0  0  0  0  0
    0.0000    4.9500    0.0000 C   0  0  0  0  0  0  0  0  0  0  0  0
   -1.4289    3.3000    0.0000 C   0  0  0  0  0  0  0  0  0  0  0  0
   -3.5724    1.2375    0.0000 C   0  0  0  0  0  0  0  0  0  0  0  0
    0.7145    7.0125    0.0000 C   0  0  0  0  0  0  0  0  0  0  0  0
    0.7145    6.1875    0.0000 N   0  0  0  0  0  0  0  0  0  0  0  0
   -2.8579    0.8250    0.0000 N   0  0  0  0  0  0  0  0  0  0  0  0
   -3.5724    2.0625    0.0000 N   0  0  0  0  0  0  0  0  0  0  0  0
    0.7145    4.5375    0.0000 O   0  0  0  0  0  0  0  0  0  0  0  0
   -4.2868    0.8250    0.0000 O   0  0  0  0  0  0  0  0  0  0  0  0
   -0.7145    3.7125    0.0000 O   0  0  0  0  0  0  0  0  0  0  0  0
  5  4  1  0
  6  4  1  0
  7  5  1  0
  8  6  1  0
 11  9  2  0
 12 10  1  0
 15  7  1  0
 15  8  1  0
 16  9  1  0
 16 10  2  0
 17 13  1  0
 17 14  1  0
 18 11  1  0
 18 12  2  0
 20  1  1  0
 20  2  1  0
 20  3  1  0
 21 13  1  0
 21 20  1  0
 22 15  1  0
 22 19  2  3
 23 16  1  0
 23 19  1  0
 24 17  1  0
 25 19  1  0
 26 14  1  0
 26 18  1  0
M  END
>  <ALOGPS_LOGP>  (74) 
3.29

>  <ALOGPS_LOGS>  (74) 
-3.79

>  <ALOGPS_SOLUBILITY>  (74) 
5.93e-02 g/l

>  <DATABASE_NAME>  (74) 
drugbank

>  <DRUGBANK_ID>  (74) 
DB11770

>  <DRUG_GROUPS>  (74) 
investigational

>  <EXACT_MASS>  (74) 
363.252191937

>  <FORMULA>  (74) 
C20H33N3O3

>  <GENERIC_NAME>  (74) 
Talinolol

>  <ID>  (74) 


>  <INCHI_IDENTIFIER>  (74) 
InChI=1S/C20H33N3O3/c1-20(2,3)21-13-17(24)14-26-18-11-9-16(10-12-18)23-19(25)22-15-7-5-4-6-8-15/h9-12,15,17,21,24H,4-8,13-14H2,1-3H3,(H2,22,23,25)

>  <INCHI_KEY>  (74) 
MXFWWQICDIZSOA-UHFFFAOYSA-N

>  <INTERNATIONAL_BRANDS>  (74) 
nan

>  <JCHEM_ACCEPTOR_COUNT>  (74) 
6

>  <JCHEM_ATOM_COUNT>  (74) 
nan

>  <JCHEM_AVERAGE_POLARIZABILITY>  (74) 
42.245582435365016

>  <JCHEM_BIOAVAILABILITY>  (74) 
1

>  <JCHEM_DONOR_COUNT>  (74) 
4

>  <JCHEM_FORMAL_CHARGE>  (74) 
0

>  <JCHEM_GHOSE_FILTER>  (74) 
1

>  <JCHEM_IUPAC>  (74) 
N-{4-[3-(tert-butylamino)-2-hydroxypropoxy]phenyl}-N'-cyclohexylcarbamimidic acid

>  <JCHEM_LOGP>  (74) 
2.3004207880021847

>  <JCHEM_MDDR_LIKE_RULE>  (74) 
0

>  <JCHEM_NUMBER_OF_RINGS>  (74) 
2

>  <JCHEM_PHYSIOLOGICAL_CHARGE>  (74) 
1

>  <JCHEM_PKA>  (74) 
14.087602092427936

>  <JCHEM_PKA_STRONGEST_ACIDIC>  (74) 
8.618236506717512

>  <JCHEM_PKA_STRONGEST_BASIC>  (74) 
9.792079612241801

>  <JCHEM_POLAR_SURFACE_AREA>  (74) 
86.11000000000001

>  <JCHEM_REFRACTIVITY>  (74) 
104.98599999999999

>  <JCHEM_ROTATABLE_BOND_COUNT>  (74) 
8

>  <JCHEM_RULE_OF_FIVE>  (74) 
1

>  <JCHEM_TRADITIONAL_IUPAC>  (74) 
(+-)-talinolol

>  <JCHEM_VEBER_RULE>  (74) 
0

>  <MOLECULAR_WEIGHT>  (74) 
363.4943

>  <PRODUCTS>  (74) 
nan

>  <SALTS>  (74) 
nan

>  <SECONDARY_ACCESSION_NUMBERS>  (74) 
nan

>  <SMILES>  (74) 
CC(C)(C)NCC(O)COC1=CC=C(NC(O)=NC2CCCCC2)C=C1

>  <SYNONYMS>  (74) 
nan

>  <ECFP_FP>  (74) 
<rdkit.DataStructs.cDataStructs.ExplicitBitVect object at 0xa26be2300>

>  <pki_G>  (74) 
5.861809

>  <pki_D>  (74) 
5.752911

>  <pki_B>  (74) 
5.552821

>  <pki_A>  (74) 
5.541108

>  <SelB>  (74) 
0.308988

>  <SelA>  (74) 
0.320701

>  <SelD>  (74) 
0.108898

>  <AvgABSel>  (74) 
0.314845

>  <MACCS_FP>  (74) 
[0. 0. 0. 0. 0. 0. 0. 0. 0. 0. 0. 0. 0. 0. 0. 0. 0. 0. 0. 0. 0. 0. 0. 0.
 0. 0. 0. 0. 0. 0. 0. 0. 0. 0. 0. 0. 0. 1. 0. 0. 0. 0. 0. 1. 0. 0. 0. 0.
 0. 0. 0. 0. 0. 0. 1. 0. 0. 0. 0. 0. 0. 0. 0. 0. 0. 0. 1. 0. 0. 0. 0. 0.
 1. 0. 1. 0. 0. 1. 1. 0. 0. 0. 1. 0. 0. 0. 0. 0. 0. 0. 1. 1. 0. 0. 0. 1.
 0. 1. 0. 0. 1. 0. 0. 0. 1. 0. 1. 0. 0. 1. 1. 1. 1. 1. 0. 0. 1. 1. 1. 1.
 0. 0. 0. 0. 0. 0. 1. 1. 1. 1. 0. 1. 1. 1. 0. 1. 0. 0. 1. 1. 0. 1. 1. 1.
 0. 1. 1. 1. 0. 1. 0. 1. 1. 1. 0. 1. 1. 1. 1. 1. 1. 1. 1. 1. 1. 1. 0.]

>  <MACCS_pki_G>  (74) 
6.087258

>  <MACCS_pki_D>  (74) 
5.85461

>  <MACCS_pki_B>  (74) 
5.93272

>  <MACCS_pki_A>  (74) 
6.167466

>  <MACCS_SelB>  (74) 
0.154539

>  <MACCS_SelA>  (74) 
-0.080208

>  <MACCS_SelD>  (74) 
0.232648

>  <MACCSAvgABSel>  (74) 
0.037165

>  <Pharm2D_FP>  (74) 
[0. 0. 0. ... 0. 0. 0.]

>  <Pharm2D_pki_G>  (74) 
6.435356

>  <Pharm2D_pki_D>  (74) 
5.866444

>  <Pharm2D_pki_B>  (74) 
5.371198

>  <Pharm2D_pki_A>  (74) 
5.786516

>  <Pharm2D_SelB>  (74) 
1.064159

>  <Pharm2D_SelA>  (74) 
0.64884

>  <Pharm2D_SelD>  (74) 
0.568913

>  <Pharm2DAvgABSel>  (74) 
0.856499

>  <QED>  (74) 
0.440154

$$$$
DB12923
     RDKit          2D

 35 36  0  0  0  0  0  0  0  0999 V2000
    5.7158   -3.5211    0.0000 C   0  0  0  0  0  0  0  0  0  0  0  0
    6.9533   -4.2355    0.0000 C   0  0  0  0  0  0  0  0  0  0  0  0
    2.8579   -5.7750    0.0000 C   0  0  0  0  0  0  0  0  0  0  0  0
   -2.1434   -3.7125    0.0000 C   0  0  0  0  0  0  0  0  0  0  0  0
   -2.1434   -4.5375    0.0000 C   0  0  0  0  0  0  0  0  0  0  0  0
    9.2881   -5.3625    0.0000 C   0  0  0  0  0  0  0  0  0  0  0  0
    7.8592   -7.8375    0.0000 C   0  0  0  0  0  0  0  0  0  0  0  0
    9.2881   -6.1875    0.0000 C   0  0  0  0  0  0  0  0  0  0  0  0
    4.2868   -4.9500    0.0000 C   0  0  0  0  0  0  0  0  0  0  0  0
    0.7145   -3.7125    0.0000 C   0  0  0  0  0  0  0  0  0  0  0  0
    0.0000   -3.3000    0.0000 C   0  0  0  0  0  0  0  0  0  0  0  0
    1.4289   -4.9500    0.0000 C   0  0  0  0  0  0  0  0  0  0  0  0
    5.0013   -4.5375    0.0000 C   0  0  0  0  0  0  0  0  0  0  0  0
    3.5724   -4.5375    0.0000 C   0  0  0  0  0  0  0  0  0  0  0  0
    2.1434   -4.5375    0.0000 C   0  0  0  0  0  0  0  0  0  0  0  0
    0.0000   -4.9500    0.0000 C   0  0  0  0  0  0  0  0  0  0  0  0
    7.1447   -4.9500    0.0000 C   0  0  0  0  0  0  0  0  0  0  0  0
    6.4302   -6.1875    0.0000 C   0  0  0  0  0  0  0  0  0  0  0  0
    5.3033   -5.6645    0.0000 C   0  0  0  0  0  0  0  0  0  0  0  0
    6.1283   -4.2355    0.0000 C   0  0  0  0  0  0  0  0  0  0  0  0
    0.7145   -4.5375    0.0000 C   0  0  0  0  0  0  0  0  0  0  0  0
    6.4302   -5.3625    0.0000 C   0  0  0  0  0  0  0  0  0  0  0  0
   -0.7145   -3.7125    0.0000 C   0  0  0  0  0  0  0  0  0  0  0  0
   -0.7145   -4.5375    0.0000 C   0  0  0  0  0  0  0  0  0  0  0  0
    7.8592   -5.3625    0.0000 C   0  0  0  0  0  0  0  0  0  0  0  0
    7.1447   -6.6000    0.0000 C   0  0  0  0  0  0  0  0  0  0  0  0
    7.8592   -6.1875    0.0000 C   0  0  0  0  0  0  0  0  0  0  0  0
    5.7158   -4.9500    0.0000 C   0  0  0  0  0  0  0  0  0  0  0  0
    4.8908   -6.3789    0.0000 N   0  0  0  0  0  0  0  0  0  0  0  0
    2.8579   -4.9500    0.0000 N   0  0  0  0  0  0  0  0  0  0  0  0
   -1.4289   -3.3000    0.0000 O   0  0  0  0  0  0  0  0  0  0  0  0
   -1.4289   -4.9500    0.0000 O   0  0  0  0  0  0  0  0  0  0  0  0
    8.5737   -4.9500    0.0000 O   0  0  0  0  0  0  0  0  0  0  0  0
    7.1447   -7.4250    0.0000 O   0  0  0  0  0  0  0  0  0  0  0  0
    8.5737   -6.6000    0.0000 O   0  0  0  0  0  0  0  0  0  0  0  0
 11 10  2  0
 13  9  1  0
 14  9  1  0
 15 12  1  0
 20  1  1  0
 20  2  1  0
 21 10  1  0
 21 12  1  0
 21 16  2  0
 22 17  2  0
 22 18  1  0
 23 11  1  0
 24 16  1  0
 24 23  2  0
 25 17  1  0
 26 18  2  0
 27 25  2  0
 27 26  1  0
 28 13  1  0
 28 19  1  0
 28 20  1  0
 28 22  1  0
 29 19  3  0
 30  3  1  0
 30 14  1  0
 30 15  1  0
 31  4  1  0
 31 23  1  0
 32  5  1  0
 32 24  1  0
 33  6  1  0
 33 25  1  0
 34  7  1  0
 34 26  1  0
 35  8  1  0
 35 27  1  0
M  END
>  <ALOGPS_LOGP>  (75) 
4.42

>  <ALOGPS_LOGS>  (75) 
-4.95

>  <ALOGPS_SOLUBILITY>  (75) 
5.48e-03 g/l

>  <DATABASE_NAME>  (75) 
drugbank

>  <DRUGBANK_ID>  (75) 
DB12923

>  <DRUG_GROUPS>  (75) 
investigational

>  <EXACT_MASS>  (75) 
484.293722396

>  <FORMULA>  (75) 
C28H40N2O5

>  <GENERIC_NAME>  (75) 
Gallopamil

>  <ID>  (75) 


>  <INCHI_IDENTIFIER>  (75) 
InChI=1S/C28H40N2O5/c1-20(2)28(19-29,22-17-25(33-6)27(35-8)26(18-22)34-7)13-9-14-30(3)15-12-21-10-11-23(31-4)24(16-21)32-5/h10-11,16-18,20H,9,12-15H2,1-8H3

>  <INCHI_KEY>  (75) 
XQLWNAFCTODIRK-UHFFFAOYSA-N

>  <INTERNATIONAL_BRANDS>  (75) 
nan

>  <JCHEM_ACCEPTOR_COUNT>  (75) 
7

>  <JCHEM_ATOM_COUNT>  (75) 
75

>  <JCHEM_AVERAGE_POLARIZABILITY>  (75) 
55.50644296238069

>  <JCHEM_BIOAVAILABILITY>  (75) 
1

>  <JCHEM_DONOR_COUNT>  (75) 
0

>  <JCHEM_FORMAL_CHARGE>  (75) 
0

>  <JCHEM_GHOSE_FILTER>  (75) 
0

>  <JCHEM_IUPAC>  (75) 
5-{[2-(3,4-dimethoxyphenyl)ethyl](methyl)amino}-2-(propan-2-yl)-2-(3,4,5-trimethoxyphenyl)pentanenitrile

>  <JCHEM_LOGP>  (75) 
4.885514555333333

>  <JCHEM_MDDR_LIKE_RULE>  (75) 
0

>  <JCHEM_NUMBER_OF_RINGS>  (75) 
2

>  <JCHEM_PHYSIOLOGICAL_CHARGE>  (75) 
1

>  <JCHEM_PKA>  (75) 
nan

>  <JCHEM_PKA_STRONGEST_ACIDIC>  (75) 
nan

>  <JCHEM_PKA_STRONGEST_BASIC>  (75) 
9.678443570599812

>  <JCHEM_POLAR_SURFACE_AREA>  (75) 
73.18000000000002

>  <JCHEM_REFRACTIVITY>  (75) 
139.11109999999996

>  <JCHEM_ROTATABLE_BOND_COUNT>  (75) 
14

>  <JCHEM_RULE_OF_FIVE>  (75) 
1

>  <JCHEM_TRADITIONAL_IUPAC>  (75) 
galloβ

>  <JCHEM_VEBER_RULE>  (75) 
0

>  <MOLECULAR_WEIGHT>  (75) 
484.637

>  <PRODUCTS>  (75) 
nan

>  <SALTS>  (75) 
Gallopamil Hydrochloride

>  <SECONDARY_ACCESSION_NUMBERS>  (75) 
nan

>  <SMILES>  (75) 
COC1=CC(=CC(OC)=C1OC)C(CCCN(C)CCC1=CC(OC)=C(OC)C=C1)(C#N)C(C)C

>  <SYNONYMS>  (75) 
nan

>  <ECFP_FP>  (75) 
<rdkit.DataStructs.cDataStructs.ExplicitBitVect object at 0xa26c6a5d0>

>  <pki_G>  (75) 
5.848456

>  <pki_D>  (75) 
5.873951

>  <pki_B>  (75) 
5.520285

>  <pki_A>  (75) 
5.609697

>  <SelB>  (75) 
0.328171

>  <SelA>  (75) 
0.238759

>  <SelD>  (75) 
-0.025495

>  <AvgABSel>  (75) 
0.283465

>  <MACCS_FP>  (75) 
[0. 0. 0. 0. 0. 0. 0. 0. 0. 0. 0. 0. 0. 0. 0. 0. 0. 0. 0. 0. 0. 0. 0. 0.
 0. 0. 0. 0. 0. 0. 0. 0. 0. 0. 0. 0. 0. 0. 0. 0. 0. 1. 0. 0. 0. 0. 0. 0.
 0. 0. 0. 0. 0. 0. 0. 0. 0. 0. 0. 0. 0. 0. 0. 0. 0. 0. 1. 0. 0. 0. 0. 0.
 1. 0. 1. 0. 0. 0. 0. 0. 0. 0. 0. 0. 0. 1. 1. 0. 0. 1. 0. 0. 0. 1. 0. 0.
 0. 0. 0. 0. 1. 0. 0. 0. 0. 0. 0. 0. 1. 0. 0. 1. 1. 1. 0. 1. 1. 0. 1. 0.
 0. 0. 1. 0. 0. 1. 1. 1. 1. 1. 0. 0. 0. 0. 0. 0. 0. 0. 1. 0. 1. 1. 1. 1.
 1. 1. 1. 1. 1. 1. 1. 0. 1. 1. 0. 1. 0. 1. 1. 1. 1. 1. 1. 1. 1. 1. 0.]

>  <MACCS_pki_G>  (75) 
5.677884

>  <MACCS_pki_D>  (75) 
5.787152

>  <MACCS_pki_B>  (75) 
5.43577

>  <MACCS_pki_A>  (75) 
6.136139

>  <MACCS_SelB>  (75) 
0.242114

>  <MACCS_SelA>  (75) 
-0.458255

>  <MACCS_SelD>  (75) 
-0.109268

>  <MACCSAvgABSel>  (75) 
-0.10807

>  <Pharm2D_FP>  (75) 
[0. 0. 0. ... 0. 0. 0.]

>  <Pharm2D_pki_G>  (75) 
6.032426

>  <Pharm2D_pki_D>  (75) 
5.431846

>  <Pharm2D_pki_B>  (75) 
5.305569

>  <Pharm2D_pki_A>  (75) 
5.319124

>  <Pharm2D_SelB>  (75) 
0.726856

>  <Pharm2D_SelA>  (75) 
0.713302

>  <Pharm2D_SelD>  (75) 
0.60058

>  <Pharm2DAvgABSel>  (75) 
0.720079

>  <QED>  (75) 
0.369229

$$$$
DB06996
     RDKit          2D

 26 27  0  0  0  0  0  0  0  0999 V2000
    0.3300   -0.8531    0.0000 N   0  0  0  0  0  0  0  0  0  0  0  0
   -0.4236   -0.5175    0.0000 C   0  0  0  0  0  0  0  0  0  0  0  0
   -0.5952    0.2895    0.0000 C   0  0  0  0  0  0  0  0  0  0  0  0
    0.0179    0.8415    0.0000 O   0  0  0  0  0  0  0  0  0  0  0  0
   -1.3798    0.5444    0.0000 N   0  0  0  0  0  0  0  0  0  0  0  0
   -1.5513    1.3514    0.0000 C   0  0  0  0  0  0  0  0  0  0  0  0
   -2.3359    1.6063    0.0000 C   0  0  0  0  0  0  0  0  0  0  0  0
   -2.9490    1.0543    0.0000 C   0  0  0  0  0  0  0  0  0  0  0  0
   -3.7337    1.3092    0.0000 C   0  0  0  0  0  0  0  0  0  0  0  0
   -3.9052    2.1162    0.0000 C   0  0  0  0  0  0  0  0  0  0  0  0
   -4.6898    2.3711    0.0000 C   0  0  0  0  0  0  0  0  0  0  0  0
   -4.8613    3.1781    0.0000 N   0  0  0  0  0  0  0  0  0  0  0  0
   -5.3029    1.8191    0.0000 N   0  0  0  0  0  0  0  0  0  0  0  0
   -3.2921    2.6682    0.0000 C   0  0  0  0  0  0  0  0  0  0  0  0
   -2.5075    2.4133    0.0000 C   0  0  0  0  0  0  0  0  0  0  0  0
   -0.9757   -1.1306    0.0000 C   0  0  0  0  0  0  0  0  0  0  0  0
   -0.5632   -1.8451    0.0000 C   0  0  0  0  0  0  0  0  0  0  0  0
    0.2438   -1.6735    0.0000 C   0  0  0  0  0  0  0  0  0  0  0  0
    1.0445   -0.4406    0.0000 C   0  0  0  0  0  0  0  0  0  0  0  0
    1.7590   -0.8531    0.0000 C   0  0  0  0  0  0  0  0  0  0  0  0
    1.7590   -1.6781    0.0000 N   0  0  0  0  0  0  0  0  0  0  0  0
    2.4734   -0.4406    0.0000 C   0  0  0  0  0  0  0  0  0  0  0  0
    3.1879   -0.8531    0.0000 C   0  0  0  0  0  0  0  0  0  0  0  0
    3.9024   -0.4406    0.0000 C   0  0  0  0  0  0  0  0  0  0  0  0
    3.1879   -1.6781    0.0000 C   0  0  0  0  0  0  0  0  0  0  0  0
    1.0445    0.3844    0.0000 O   0  0  0  0  0  0  0  0  0  0  0  0
  1 19  1  0
  2  1  1  0
  2  3  1  1
  3  5  1  0
  4  3  2  0
  6  5  1  0
  6  7  1  0
  7  8  2  0
  7 15  1  0
  8  9  1  0
  9 10  2  0
 10 11  1  0
 11 12  2  0
 11 13  1  0
 14 10  1  0
 15 14  2  0
 16  2  1  0
 16 17  1  0
 17 18  1  0
 18  1  1  0
 19 26  2  0
 19 20  1  0
 20 21  1  1
 20 22  1  0
 22 23  1  0
 23 24  1  0
 25 23  1  0
M  END
>  <ALOGPS_LOGP>  (76) 
0.63

>  <ALOGPS_LOGS>  (76) 
-3.45

>  <ALOGPS_SOLUBILITY>  (76) 
1.28e-01 g/l

>  <DATABASE_NAME>  (76) 
drugbank

>  <DRUGBANK_ID>  (76) 
DB06996

>  <DRUG_GROUPS>  (76) 
experimental

>  <EXACT_MASS>  (76) 
359.232125197

>  <FORMULA>  (76) 
C19H29N5O2

>  <GENERIC_NAME>  (76) 
D-leucyl-N-(4-carbamimidoylbenzyl)-L-prolinamide

>  <ID>  (76) 
31U

>  <INCHI_IDENTIFIER>  (76) 
InChI=1S/C19H29N5O2/c1-12(2)10-15(20)19(26)24-9-3-4-16(24)18(25)23-11-13-5-7-14(8-6-13)17(21)22/h5-8,12,15-16H,3-4,9-11,20H2,1-2H3,(H3,21,22)(H,23,25)/t15-,16+/m1/s1

>  <INCHI_KEY>  (76) 
XFNMDMGNNKIXBT-CVEARBPZSA-N

>  <INTERNATIONAL_BRANDS>  (76) 
nan

>  <JCHEM_ACCEPTOR_COUNT>  (76) 
5

>  <JCHEM_ATOM_COUNT>  (76) 
nan

>  <JCHEM_AVERAGE_POLARIZABILITY>  (76) 
40.412815529571446

>  <JCHEM_BIOAVAILABILITY>  (76) 
1

>  <JCHEM_DONOR_COUNT>  (76) 
4

>  <JCHEM_FORMAL_CHARGE>  (76) 
0

>  <JCHEM_GHOSE_FILTER>  (76) 
1

>  <JCHEM_IUPAC>  (76) 
(2S)-1-[(2R)-2-amino-4-methylpentanoyl]-N-[(4-carbamimidoylphenyl)methyl]pyrrolidine-2-carboxamide

>  <JCHEM_LOGP>  (76) 
0.4732204656666664

>  <JCHEM_MDDR_LIKE_RULE>  (76) 
0

>  <JCHEM_NUMBER_OF_RINGS>  (76) 
2

>  <JCHEM_PHYSIOLOGICAL_CHARGE>  (76) 
2

>  <JCHEM_PKA>  (76) 
nan

>  <JCHEM_PKA_STRONGEST_ACIDIC>  (76) 
15.357982624896188

>  <JCHEM_PKA_STRONGEST_BASIC>  (76) 
11.484296674931143

>  <JCHEM_POLAR_SURFACE_AREA>  (76) 
125.30000000000001

>  <JCHEM_REFRACTIVITY>  (76) 
112.16139999999997

>  <JCHEM_ROTATABLE_BOND_COUNT>  (76) 
7

>  <JCHEM_RULE_OF_FIVE>  (76) 
1

>  <JCHEM_TRADITIONAL_IUPAC>  (76) 
(2S)-1-[(2R)-2-amino-4-methylpentanoyl]-N-[(4-carbamimidoylphenyl)methyl]pyrrolidine-2-carboxamide

>  <JCHEM_VEBER_RULE>  (76) 
0

>  <MOLECULAR_WEIGHT>  (76) 
359.4659

>  <PRODUCTS>  (76) 
nan

>  <SALTS>  (76) 
nan

>  <SECONDARY_ACCESSION_NUMBERS>  (76) 
nan

>  <SMILES>  (76) 
[H][C@@](N)(CC(C)C)C(=O)N1CCC[C@@]1([H])C(=O)NCC1=CC=C(C=C1)C(N)=N

>  <SYNONYMS>  (76) 
nan

>  <ECFP_FP>  (76) 
<rdkit.DataStructs.cDataStructs.ExplicitBitVect object at 0xa26a3f8a0>

>  <pki_G>  (76) 
5.842308

>  <pki_D>  (76) 
5.907966

>  <pki_B>  (76) 
5.363713

>  <pki_A>  (76) 
6.061948

>  <SelB>  (76) 
0.478595

>  <SelA>  (76) 
-0.21964

>  <SelD>  (76) 
-0.065658

>  <AvgABSel>  (76) 
0.129477

>  <MACCS_FP>  (76) 
[0. 0. 0. 0. 0. 0. 0. 0. 0. 0. 0. 0. 0. 0. 0. 0. 0. 0. 0. 0. 0. 0. 0. 0.
 0. 0. 0. 0. 0. 0. 0. 0. 0. 0. 0. 0. 0. 0. 1. 0. 0. 0. 0. 1. 0. 0. 0. 0.
 0. 0. 0. 0. 0. 0. 0. 0. 0. 0. 0. 0. 0. 0. 0. 0. 0. 0. 0. 0. 0. 0. 0. 0.
 0. 0. 1. 1. 0. 1. 1. 1. 0. 0. 1. 1. 1. 1. 0. 0. 0. 0. 1. 1. 1. 0. 0. 1.
 1. 0. 0. 0. 1. 0. 0. 0. 1. 0. 0. 0. 0. 0. 1. 1. 0. 0. 0. 1. 0. 1. 1. 1.
 0. 1. 1. 0. 0. 0. 0. 0. 1. 1. 0. 1. 0. 0. 0. 0. 1. 1. 1. 0. 0. 0. 1. 0.
 0. 0. 0. 1. 1. 1. 1. 1. 0. 1. 1. 1. 1. 0. 1. 1. 1. 1. 1. 1. 1. 1. 0.]

>  <MACCS_pki_G>  (76) 
5.963807

>  <MACCS_pki_D>  (76) 
6.026319

>  <MACCS_pki_B>  (76) 
5.442195

>  <MACCS_pki_A>  (76) 
5.341885

>  <MACCS_SelB>  (76) 
0.521612

>  <MACCS_SelA>  (76) 
0.621922

>  <MACCS_SelD>  (76) 
-0.062512

>  <MACCSAvgABSel>  (76) 
0.571767

>  <Pharm2D_FP>  (76) 
[0. 0. 0. ... 0. 0. 0.]

>  <Pharm2D_pki_G>  (76) 
6.312538

>  <Pharm2D_pki_D>  (76) 
5.758012

>  <Pharm2D_pki_B>  (76) 
5.601022

>  <Pharm2D_pki_A>  (76) 
5.39796

>  <Pharm2D_SelB>  (76) 
0.711516

>  <Pharm2D_SelA>  (76) 
0.914578

>  <Pharm2D_SelD>  (76) 
0.554526

>  <Pharm2DAvgABSel>  (76) 
0.813047

>  <QED>  (76) 
0.427058

$$$$
DB00661
     RDKit          2D

 33 34  0  0  1  0  0  0  0  0999 V2000
    2.3645   -2.0478    0.0000 O   0  0  0  0  0  0  0  0  0  0  0  0
    3.7935   -2.8728    0.0000 O   0  0  0  0  0  0  0  0  0  0  0  0
    9.9812    1.1418    0.0000 O   0  0  0  0  0  0  0  0  0  0  0  0
   10.8062    2.5708    0.0000 O   0  0  0  0  0  0  0  0  0  0  0  0
    6.2686    1.8563    0.0000 N   0  0  0  0  0  0  0  0  0  0  0  0
    2.1435    0.4273    0.0000 N   0  0  0  0  0  0  0  0  0  0  0  0
    3.7935    0.4273    0.0000 C   0  0  0  0  0  0  0  0  0  0  0  0
    3.7935    1.2523    0.0000 C   0  0  0  0  0  0  0  0  0  0  0  0
    4.6185    0.4273    0.0000 C   0  0  0  0  0  0  0  0  0  0  0  0
    5.0310    1.1418    0.0000 C   0  0  0  0  0  0  0  0  0  0  0  0
    3.7935   -0.3977    0.0000 C   0  0  0  0  0  0  0  0  0  0  0  0
    5.8561    1.1418    0.0000 C   0  0  0  0  0  0  0  0  0  0  0  0
    3.0791    1.6648    0.0000 C   0  0  0  0  0  0  0  0  0  0  0  0
    4.5080    1.6648    0.0000 C   0  0  0  0  0  0  0  0  0  0  0  0
    2.9685    0.4273    0.0000 C   0  0  0  0  0  0  0  0  0  0  0  0
    3.0791   -0.8103    0.0000 C   0  0  0  0  0  0  0  0  0  0  0  0
    4.5080   -0.8103    0.0000 C   0  0  0  0  0  0  0  0  0  0  0  0
    7.0936    1.8563    0.0000 C   0  0  0  0  0  0  0  0  0  0  0  0
    3.0791   -1.6353    0.0000 C   0  0  0  0  0  0  0  0  0  0  0  0
    5.8561    2.5708    0.0000 C   0  0  0  0  0  0  0  0  0  0  0  0
    4.5080   -1.6353    0.0000 C   0  0  0  0  0  0  0  0  0  0  0  0
    7.5061    2.5708    0.0000 C   0  0  0  0  0  0  0  0  0  0  0  0
    3.7935   -2.0478    0.0000 C   0  0  0  0  0  0  0  0  0  0  0  0
    8.3311    2.5708    0.0000 C   0  0  0  0  0  0  0  0  0  0  0  0
    8.7436    1.8563    0.0000 C   0  0  0  0  0  0  0  0  0  0  0  0
    8.7436    3.2853    0.0000 C   0  0  0  0  0  0  0  0  0  0  0  0
    9.5686    1.8563    0.0000 C   0  0  0  0  0  0  0  0  0  0  0  0
    1.6500   -1.6353    0.0000 C   0  0  0  0  0  0  0  0  0  0  0  0
    9.5686    3.2853    0.0000 C   0  0  0  0  0  0  0  0  0  0  0  0
    9.9812    2.5708    0.0000 C   0  0  0  0  0  0  0  0  0  0  0  0
    4.5080   -3.2853    0.0000 C   0  0  0  0  0  0  0  0  0  0  0  0
   10.8062    1.1418    0.0000 C   0  0  0  0  0  0  0  0  0  0  0  0
   11.2187    3.2853    0.0000 C   0  0  0  0  0  0  0  0  0  0  0  0
  1 19  1  0
  1 28  1  0
  2 23  1  0
  2 31  1  0
  3 27  1  0
  3 32  1  0
  4 30  1  0
  4 33  1  0
  5 12  1  0
  5 18  1  0
  5 20  1  0
  6 15  3  0
  7  8  1  0
  7  9  1  0
  7 11  1  0
  7 15  1  0
  8 13  1  0
  8 14  1  0
  9 10  1  0
 10 12  1  0
 11 16  2  0
 11 17  1  0
 16 19  1  0
 17 21  2  0
 18 22  1  0
 19 23  2  0
 21 23  1  0
 22 24  1  0
 24 25  2  0
 24 26  1  0
 25 27  1  0
 26 29  2  0
 27 30  2  0
 29 30  1  0
M  END
>  <ALOGPS_LOGP>  (77) 
5.23

>  <ALOGPS_LOGS>  (77) 
-5.06

>  <ALOGPS_SOLUBILITY>  (77) 
3.94e-03 g/l

>  <DATABASE_NAME>  (77) 
drugbank

>  <DRUGBANK_ID>  (77) 
DB00661

>  <DRUG_GROUPS>  (77) 
approved

>  <EXACT_MASS>  (77) 
454.283157714

>  <FORMULA>  (77) 
C27H38N2O4

>  <GENERIC_NAME>  (77) 
Verapamil

>  <ID>  (77) 
661

>  <INCHI_IDENTIFIER>  (77) 
InChI=1S/C27H38N2O4/c1-20(2)27(19-28,22-10-12-24(31-5)26(18-22)33-7)14-8-15-29(3)16-13-21-9-11-23(30-4)25(17-21)32-6/h9-12,17-18,20H,8,13-16H2,1-7H3

>  <INCHI_KEY>  (77) 
SGTNSNPWRIOYBX-UHFFFAOYSA-N

>  <INTERNATIONAL_BRANDS>  (77) 
Bosoptin; Isoptin; Verisop; Vermin; Vermine; Verogalid; Verogalid ER; Verpamil; Vertab; Vetrimil; Zolvera

>  <JCHEM_ACCEPTOR_COUNT>  (77) 
6

>  <JCHEM_ATOM_COUNT>  (77) 
nan

>  <JCHEM_AVERAGE_POLARIZABILITY>  (77) 
51.6951341668482

>  <JCHEM_BIOAVAILABILITY>  (77) 
0

>  <JCHEM_DONOR_COUNT>  (77) 
0

>  <JCHEM_FORMAL_CHARGE>  (77) 
0

>  <JCHEM_GHOSE_FILTER>  (77) 
0

>  <JCHEM_IUPAC>  (77) 
2-(3,4-dimethoxyphenyl)-5-{[2-(3,4-dimethoxyphenyl)ethyl](methyl)amino}-2-(propan-2-yl)pentanenitrile

>  <JCHEM_LOGP>  (77) 
5.043185821000002

>  <JCHEM_MDDR_LIKE_RULE>  (77) 
0

>  <JCHEM_NUMBER_OF_RINGS>  (77) 
2

>  <JCHEM_PHYSIOLOGICAL_CHARGE>  (77) 
1

>  <JCHEM_PKA>  (77) 
nan

>  <JCHEM_PKA_STRONGEST_ACIDIC>  (77) 
nan

>  <JCHEM_PKA_STRONGEST_BASIC>  (77) 
9.67844357225492

>  <JCHEM_POLAR_SURFACE_AREA>  (77) 
63.95

>  <JCHEM_REFRACTIVITY>  (77) 
132.6479

>  <JCHEM_ROTATABLE_BOND_COUNT>  (77) 
13

>  <JCHEM_RULE_OF_FIVE>  (77) 
0

>  <JCHEM_TRADITIONAL_IUPAC>  (77) 
veraβ

>  <JCHEM_VEBER_RULE>  (77) 
0

>  <MOLECULAR_WEIGHT>  (77) 
454.6016

>  <PRODUCTS>  (77) 
Alti-verapamil - 120mg; Alti-verapamil - 80mg; Apo-verap SR; Apo-verap Tab 80mg; Apo-verap Tablet 120mg; Calan; Calan SR; Covera-HS; Dom-verapamil SR 240mg Tablets; Isoptin Inj 2.5mg/ml; Isoptin SR; Isoptin Tab 120mg; Isoptin Tab 80mg; Med Verapamil Tablets; Mylan-verapamil; Mylan-verapamil SR; Novo-veramil; Novo-veramil SR; Nu-verap SR; Nu-verap Tab 120mg; Nu-verap Tab 80mg; PHL-verapamil SR; PMS-verapamil SR; Penta-verapamil - 120mg; Penta-verapamil - 80mg; Pro-verapamil SR; Riva-verapamil SR; Tarka; Taro-verapamil Tab 120mg; Taro-verapamil Tab 80mg; Trandolapril and Verapamil Hydrochloride; Trandolapril and Verapamil Hydrochloride ER; Verapamil; Verapamil HCl; Verapamil Hci; Verapamil Hydrochloride; Verapamil Hydrochloride Injection USP; Verapamil Hydrochloride PM; Verapamil Injection 2.5mg/ml; Verapamil SR; Verapamil Tab 80mg; Verapamil hydrochloride; Verapamil-120 Tab; Verelan; Verelan PM

>  <SALTS>  (77) 
Verapamil hydrochloride

>  <SECONDARY_ACCESSION_NUMBERS>  (77) 
APRD00335

>  <SMILES>  (77) 
COC1=C(OC)C=C(CCN(C)CCCC(C#N)(C(C)C)C2=CC(OC)=C(OC)C=C2)C=C1

>  <SYNONYMS>  (77) 
Iproveratril; Vérapamil; Verapamil; Verapamilo; Verapamilum

>  <ECFP_FP>  (77) 
<rdkit.DataStructs.cDataStructs.ExplicitBitVect object at 0xa2660de90>

>  <pki_G>  (77) 
5.841813

>  <pki_D>  (77) 
5.873951

>  <pki_B>  (77) 
5.511065

>  <pki_A>  (77) 
5.58084

>  <SelB>  (77) 
0.330748

>  <SelA>  (77) 
0.260973

>  <SelD>  (77) 
-0.032138

>  <AvgABSel>  (77) 
0.295861

>  <MACCS_FP>  (77) 
[0. 0. 0. 0. 0. 0. 0. 0. 0. 0. 0. 0. 0. 0. 0. 0. 0. 0. 0. 0. 0. 0. 0. 0.
 0. 0. 0. 0. 0. 0. 0. 0. 0. 0. 0. 0. 0. 0. 0. 0. 0. 1. 0. 0. 0. 0. 0. 0.
 0. 0. 0. 0. 0. 0. 0. 0. 0. 0. 0. 0. 0. 0. 0. 0. 0. 0. 1. 0. 0. 0. 0. 0.
 1. 0. 1. 0. 0. 0. 0. 0. 0. 0. 0. 0. 0. 1. 1. 0. 0. 0. 0. 0. 0. 1. 0. 0.
 0. 0. 0. 0. 1. 0. 0. 0. 0. 0. 0. 0. 1. 0. 0. 1. 1. 1. 0. 1. 1. 0. 1. 0.
 0. 0. 1. 0. 0. 1. 1. 1. 1. 1. 0. 0. 0. 0. 0. 0. 0. 0. 1. 0. 1. 1. 1. 1.
 1. 1. 1. 1. 1. 1. 1. 0. 1. 1. 0. 1. 0. 1. 1. 1. 1. 1. 1. 1. 1. 1. 0.]

>  <MACCS_pki_G>  (77) 
5.677884

>  <MACCS_pki_D>  (77) 
5.787152

>  <MACCS_pki_B>  (77) 
5.43577

>  <MACCS_pki_A>  (77) 
6.136139

>  <MACCS_SelB>  (77) 
0.242114

>  <MACCS_SelA>  (77) 
-0.458255

>  <MACCS_SelD>  (77) 
-0.109268

>  <MACCSAvgABSel>  (77) 
-0.10807

>  <Pharm2D_FP>  (77) 
[0. 0. 0. ... 0. 0. 0.]

>  <Pharm2D_pki_G>  (77) 
6.010657

>  <Pharm2D_pki_D>  (77) 
5.428096

>  <Pharm2D_pki_B>  (77) 
5.318175

>  <Pharm2D_pki_A>  (77) 
5.319124

>  <Pharm2D_SelB>  (77) 
0.692482

>  <Pharm2D_SelA>  (77) 
0.691534

>  <Pharm2D_SelD>  (77) 
0.582562

>  <Pharm2DAvgABSel>  (77) 
0.692008

>  <QED>  (77) 
0.419905

$$$$
DB14063
     RDKit          2D

 33 34  0  0  0  0  0  0  0  0999 V2000
    0.0001    1.3616    0.0000 C   0  0  0  0  0  0  0  0  0  0  0  0
   -0.7076    0.9493    0.0000 C   0  0  0  0  0  0  0  0  0  0  0  0
    0.7146    0.9528    0.0000 C   0  0  0  0  0  0  0  0  0  0  0  0
   -1.4222    1.3617    0.0000 C   0  0  0  0  0  0  0  0  0  0  0  0
   -0.7076    0.1248    0.0000 C   0  0  0  0  0  0  0  0  0  0  0  0
    1.4293    1.3651    0.0000 C   0  0  0  0  0  0  0  0  0  0  0  0
   -2.1368    0.9493    0.0000 C   0  0  0  0  0  0  0  0  0  0  0  0
   -1.4222   -0.2908    0.0000 C   0  0  0  0  0  0  0  0  0  0  0  0
    2.1407    0.9597    0.0000 C   0  0  0  0  0  0  0  0  0  0  0  0
   -2.1368    0.1249    0.0000 C   0  0  0  0  0  0  0  0  0  0  0  0
   -2.8548    1.3617    0.0000 O   0  0  0  0  0  0  0  0  0  0  0  0
    2.8552    1.3686    0.0000 N   0  0  0  0  0  0  0  0  0  0  0  0
   -2.8548   -0.2908    0.0000 O   0  0  0  0  0  0  0  0  0  0  0  0
   -3.5695    0.9493    0.0000 C   0  0  0  0  0  0  0  0  0  0  0  0
    3.5695    0.9635    0.0000 C   0  0  0  0  0  0  0  0  0  0  0  0
    2.8552    2.2241    0.0000 C   0  0  0  0  0  0  0  0  0  0  0  0
   -3.5695    0.1215    0.0000 C   0  0  0  0  0  0  0  0  0  0  0  0
    3.5627    0.1403    0.0000 C   0  0  0  0  0  0  0  0  0  0  0  0
    2.8556   -0.2665    0.0000 C   0  0  0  0  0  0  0  0  0  0  0  0
    2.8515   -1.0916    0.0000 C   0  0  0  0  0  0  0  0  0  0  0  0
    2.1448    0.1442    0.0000 C   0  0  0  0  0  0  0  0  0  0  0  0
    2.1397   -1.4997    0.0000 C   0  0  0  0  0  0  0  0  0  0  0  0
    1.4284   -0.2650    0.0000 C   0  0  0  0  0  0  0  0  0  0  0  0
    1.4289   -1.0888    0.0000 C   0  0  0  0  0  0  0  0  0  0  0  0
    2.1387   -2.3265    0.0000 O   0  0  0  0  0  0  0  0  0  0  0  0
    0.7108   -1.5011    0.0000 O   0  0  0  0  0  0  0  0  0  0  0  0
    1.4235   -2.7405    0.0000 C   0  0  0  0  0  0  0  0  0  0  0  0
   -0.0086   -1.0842    0.0000 C   0  0  0  0  0  0  0  0  0  0  0  0
    0.5812    1.9475    0.0000 C   0  0  0  0  0  0  0  0  0  0  0  0
   -0.5855    1.9428    0.0000 C   0  0  0  0  0  0  0  0  0  0  0  0
   -1.3816    1.7262    0.0000 C   0  0  0  0  0  0  0  0  0  0  0  0
   -0.3751    2.7405    0.0000 C   0  0  0  0  0  0  0  0  0  0  0  0
    1.1642    2.5385    0.0000 N   0  0  0  0  0  0  0  0  0  0  0  0
  1  2  1  0
  1  3  1  6
  2  4  2  0
  2  5  1  0
  3  6  1  0
  4  7  1  0
  5  8  2  0
  6  9  1  0
  7 10  2  0
  7 11  1  0
  9 12  1  0
 10 13  1  0
 11 14  1  0
 12 15  1  0
 12 16  1  0
 13 17  1  0
 15 18  1  0
 18 19  1  0
 19 20  2  0
 19 21  1  0
 20 22  1  0
 21 23  2  0
 22 24  2  0
 22 25  1  0
 24 26  1  0
 25 27  1  0
  8 10  1  0
 23 24  1  0
 26 28  1  0
  1 29  1  0
 30  1  1  0
 30 31  1  0
 30 32  1  0
 29 33  3  0
M  END
>  <ALOGPS_LOGP>  (78) 
5.23

>  <ALOGPS_LOGS>  (78) 
-5.06

>  <ALOGPS_SOLUBILITY>  (78) 
3.94e-03 g/l

>  <DATABASE_NAME>  (78) 
drugbank

>  <DRUGBANK_ID>  (78) 
DB14063

>  <DRUG_GROUPS>  (78) 
experimental

>  <EXACT_MASS>  (78) 
454.283157712

>  <FORMULA>  (78) 
C27H38N2O4

>  <GENERIC_NAME>  (78) 
Dexverapamil

>  <ID>  (78) 


>  <INCHI_IDENTIFIER>  (78) 
InChI=1S/C27H38N2O4/c1-20(2)27(19-28,22-10-12-24(31-5)26(18-22)33-7)14-8-15-29(3)16-13-21-9-11-23(30-4)25(17-21)32-6/h9-12,17-18,20H,8,13-16H2,1-7H3/t27-/m1/s1

>  <INCHI_KEY>  (78) 
SGTNSNPWRIOYBX-HHHXNRCGSA-N

>  <INTERNATIONAL_BRANDS>  (78) 
nan

>  <JCHEM_ACCEPTOR_COUNT>  (78) 
6

>  <JCHEM_ATOM_COUNT>  (78) 
71

>  <JCHEM_AVERAGE_POLARIZABILITY>  (78) 
51.61478028372924

>  <JCHEM_BIOAVAILABILITY>  (78) 
0

>  <JCHEM_DONOR_COUNT>  (78) 
0

>  <JCHEM_FORMAL_CHARGE>  (78) 
0

>  <JCHEM_GHOSE_FILTER>  (78) 
0

>  <JCHEM_IUPAC>  (78) 
(2R)-2-(3,4-dimethoxyphenyl)-5-{[2-(3,4-dimethoxyphenyl)ethyl](methyl)amino}-2-(propan-2-yl)pentanenitrile

>  <JCHEM_LOGP>  (78) 
5.043185821000002

>  <JCHEM_MDDR_LIKE_RULE>  (78) 
0

>  <JCHEM_NUMBER_OF_RINGS>  (78) 
2

>  <JCHEM_PHYSIOLOGICAL_CHARGE>  (78) 
1

>  <JCHEM_PKA>  (78) 
nan

>  <JCHEM_PKA_STRONGEST_ACIDIC>  (78) 
nan

>  <JCHEM_PKA_STRONGEST_BASIC>  (78) 
9.67844357225492

>  <JCHEM_POLAR_SURFACE_AREA>  (78) 
63.95

>  <JCHEM_REFRACTIVITY>  (78) 
132.64789999999996

>  <JCHEM_ROTATABLE_BOND_COUNT>  (78) 
13

>  <JCHEM_RULE_OF_FIVE>  (78) 
0

>  <JCHEM_TRADITIONAL_IUPAC>  (78) 
verapamilo [inn-spanish]

>  <JCHEM_VEBER_RULE>  (78) 
0

>  <MOLECULAR_WEIGHT>  (78) 
454.611

>  <PRODUCTS>  (78) 
nan

>  <SALTS>  (78) 
nan

>  <SECONDARY_ACCESSION_NUMBERS>  (78) 
nan

>  <SMILES>  (78) 
COC1=CC=C(CCN(C)CCC[C@@](C#N)(C(C)C)C2=CC(OC)=C(OC)C=C2)C=C1OC

>  <SYNONYMS>  (78) 
(+)-(R)-verapamil; (+)-verapamil; (R)-(+)-verapamil; (R)-verapamil; Dexvérapamil; Dexverapamil; Dexverapamilo; Dexverapamilum

>  <ECFP_FP>  (78) 
<rdkit.DataStructs.cDataStructs.ExplicitBitVect object at 0xa26d00990>

>  <pki_G>  (78) 
5.841813

>  <pki_D>  (78) 
5.873951

>  <pki_B>  (78) 
5.511065

>  <pki_A>  (78) 
5.58084

>  <SelB>  (78) 
0.330748

>  <SelA>  (78) 
0.260973

>  <SelD>  (78) 
-0.032138

>  <AvgABSel>  (78) 
0.295861

>  <MACCS_FP>  (78) 
[0. 0. 0. 0. 0. 0. 0. 0. 0. 0. 0. 0. 0. 0. 0. 0. 0. 0. 0. 0. 0. 0. 0. 0.
 0. 0. 0. 0. 0. 0. 0. 0. 0. 0. 0. 0. 0. 0. 0. 0. 0. 1. 0. 0. 0. 0. 0. 0.
 0. 0. 0. 0. 0. 0. 0. 0. 0. 0. 0. 0. 0. 0. 0. 0. 0. 0. 1. 0. 0. 0. 0. 0.
 1. 0. 1. 0. 0. 0. 0. 0. 0. 0. 0. 0. 0. 1. 1. 0. 0. 0. 0. 0. 0. 1. 0. 0.
 0. 0. 0. 0. 1. 0. 0. 0. 0. 0. 0. 0. 1. 0. 0. 1. 1. 1. 0. 1. 1. 0. 1. 0.
 0. 0. 1. 0. 0. 1. 1. 1. 1. 1. 0. 0. 0. 0. 0. 0. 0. 0. 1. 0. 1. 1. 1. 1.
 1. 1. 1. 1. 1. 1. 1. 0. 1. 1. 0. 1. 0. 1. 1. 1. 1. 1. 1. 1. 1. 1. 0.]

>  <MACCS_pki_G>  (78) 
5.677884

>  <MACCS_pki_D>  (78) 
5.787152

>  <MACCS_pki_B>  (78) 
5.43577

>  <MACCS_pki_A>  (78) 
6.136139

>  <MACCS_SelB>  (78) 
0.242114

>  <MACCS_SelA>  (78) 
-0.458255

>  <MACCS_SelD>  (78) 
-0.109268

>  <MACCSAvgABSel>  (78) 
-0.10807

>  <Pharm2D_FP>  (78) 
[0. 0. 0. ... 0. 0. 0.]

>  <Pharm2D_pki_G>  (78) 
6.010657

>  <Pharm2D_pki_D>  (78) 
5.428096

>  <Pharm2D_pki_B>  (78) 
5.318175

>  <Pharm2D_pki_A>  (78) 
5.319124

>  <Pharm2D_SelB>  (78) 
0.692482

>  <Pharm2D_SelA>  (78) 
0.691534

>  <Pharm2D_SelD>  (78) 
0.582562

>  <Pharm2DAvgABSel>  (78) 
0.692008

>  <QED>  (78) 
0.419905

$$$$
DB13004
     RDKit          2D

 23 25  0  0  1  0  0  0  0  0999 V2000
   -0.4672    3.4789    0.0000 C   0  0  0  0  0  0  0  0  0  0  0  0
    0.3453    3.6222    0.0000 C   0  0  0  0  0  0  0  0  0  0  0  0
    0.6274    4.3974    0.0000 C   0  0  0  0  0  0  0  0  0  0  0  0
    1.4399    4.5407    0.0000 C   0  0  0  0  0  0  0  0  0  0  0  0
    1.9702    3.9087    0.0000 C   0  0  0  0  0  0  0  0  0  0  0  0
    1.6880    3.1335    0.0000 C   0  0  0  0  0  0  0  0  0  0  0  0
    0.8756    2.9902    0.0000 C   0  0  0  0  0  0  0  0  0  0  0  0
    2.2183    2.5015    0.0000 C   0  0  0  0  0  0  0  0  0  0  0  0
    2.7486    1.8695    0.0000 C   0  0  0  0  0  0  0  0  0  0  0  0
    3.2789    1.2375    0.0000 C   0  0  0  0  0  0  0  0  0  0  0  0
    3.9934    0.8250    0.0000 C   0  0  0  0  0  0  0  0  0  0  0  0
    3.9934    0.0000    0.0000 C   0  0  0  0  0  0  0  0  0  0  0  0
    3.2789   -0.4125    0.0000 C   0  0  0  0  0  0  0  0  0  0  0  0
    2.5645    0.0000    0.0000 C   0  0  0  0  0  0  0  0  0  0  0  0
    2.5645    0.8250    0.0000 C   0  0  0  0  0  0  0  0  0  0  0  0
    1.7798    1.0799    0.0000 C   0  0  0  0  0  0  0  0  0  0  0  0
    1.2949    0.4125    0.0000 C   0  0  0  0  0  0  0  0  0  0  0  0
    1.7798   -0.2549    0.0000 N   0  0  0  0  0  0  0  0  0  0  0  0
    1.5249   -1.0396    0.0000 C   0  0  0  0  0  0  0  0  0  0  0  0
    2.0769   -1.6527    0.0000 O   0  0  0  0  0  0  0  0  0  0  0  0
    0.7179   -1.2111    0.0000 O   0  0  0  0  0  0  0  0  0  0  0  0
    0.4630   -1.9957    0.0000 C   0  0  0  0  0  0  0  0  0  0  0  0
    3.8092    1.8695    0.0000 O   0  0  0  0  0  0  0  0  0  0  0  0
  1  2  1  0
  2  3  2  0
  3  4  1  0
  4  5  2  0
  5  6  1  0
  6  7  2  0
  2  7  1  0
  6  8  1  0
  8  9  3  0
 10  9  1  0
 10 11  1  0
 11 12  1  0
 12 13  1  0
 14 13  1  1
 14 15  1  0
 10 15  1  0
 15 16  1  1
 16 17  1  0
 17 18  1  0
 14 18  1  0
 18 19  1  0
 19 20  2  0
 19 21  1  0
 21 22  1  0
 10 23  1  1
M  END
>  <ALOGPS_LOGP>  (79) 
2.53

>  <ALOGPS_LOGS>  (79) 
-4.11

>  <ALOGPS_SOLUBILITY>  (79) 
2.46e-02 g/l

>  <DATABASE_NAME>  (79) 
drugbank

>  <DRUGBANK_ID>  (79) 
DB13004

>  <DRUG_GROUPS>  (79) 
investigational

>  <EXACT_MASS>  (79) 
313.167793605

>  <FORMULA>  (79) 
C19H23NO3

>  <GENERIC_NAME>  (79) 
Mavoglurant

>  <ID>  (79) 


>  <INCHI_IDENTIFIER>  (79) 
InChI=1S/C19H23NO3/c1-14-5-3-6-15(13-14)8-11-19(22)10-4-7-17-16(19)9-12-20(17)18(21)23-2/h3,5-6,13,16-17,22H,4,7,9-10,12H2,1-2H3/t16-,17-,19-/m1/s1

>  <INCHI_KEY>  (79) 
ZFPZEYHRWGMJCV-ZHALLVOQSA-N

>  <INTERNATIONAL_BRANDS>  (79) 
nan

>  <JCHEM_ACCEPTOR_COUNT>  (79) 
2

>  <JCHEM_ATOM_COUNT>  (79) 
46

>  <JCHEM_AVERAGE_POLARIZABILITY>  (79) 
35.69864233822544

>  <JCHEM_BIOAVAILABILITY>  (79) 
1

>  <JCHEM_DONOR_COUNT>  (79) 
1

>  <JCHEM_FORMAL_CHARGE>  (79) 
0

>  <JCHEM_GHOSE_FILTER>  (79) 
1

>  <JCHEM_IUPAC>  (79) 
methyl (3aR,4S,7aR)-4-hydroxy-4-[2-(3-methylphenyl)ethynyl]-octahydro-1H-indole-1-carboxylate

>  <JCHEM_LOGP>  (79) 
3.0174108293333335

>  <JCHEM_MDDR_LIKE_RULE>  (79) 
0

>  <JCHEM_NUMBER_OF_RINGS>  (79) 
3

>  <JCHEM_PHYSIOLOGICAL_CHARGE>  (79) 
0

>  <JCHEM_PKA>  (79) 
nan

>  <JCHEM_PKA_STRONGEST_ACIDIC>  (79) 
12.873570398394516

>  <JCHEM_PKA_STRONGEST_BASIC>  (79) 
-3.7289003077422374

>  <JCHEM_POLAR_SURFACE_AREA>  (79) 
49.77

>  <JCHEM_REFRACTIVITY>  (79) 
86.3831

>  <JCHEM_ROTATABLE_BOND_COUNT>  (79) 
3

>  <JCHEM_RULE_OF_FIVE>  (79) 
1

>  <JCHEM_TRADITIONAL_IUPAC>  (79) 
mavoglurant

>  <JCHEM_VEBER_RULE>  (79) 
0

>  <MOLECULAR_WEIGHT>  (79) 
313.397

>  <PRODUCTS>  (79) 
nan

>  <SALTS>  (79) 
nan

>  <SECONDARY_ACCESSION_NUMBERS>  (79) 
nan

>  <SMILES>  (79) 
COC(=O)N1CC[C@@H]2[C@H]1CCC[C@@]2(O)C#CC1=CC(C)=CC=C1

>  <SYNONYMS>  (79) 
nan

>  <ECFP_FP>  (79) 
<rdkit.DataStructs.cDataStructs.ExplicitBitVect object at 0xa26c763a0>

>  <pki_G>  (79) 
5.841621

>  <pki_D>  (79) 
5.683797

>  <pki_B>  (79) 
5.332802

>  <pki_A>  (79) 
5.631999

>  <SelB>  (79) 
0.508819

>  <SelA>  (79) 
0.209622

>  <SelD>  (79) 
0.157825

>  <AvgABSel>  (79) 
0.359221

>  <MACCS_FP>  (79) 
[0. 0. 0. 0. 0. 0. 0. 0. 0. 0. 0. 0. 0. 0. 0. 0. 0. 1. 0. 0. 0. 0. 0. 1.
 0. 0. 0. 0. 0. 0. 0. 0. 0. 0. 0. 0. 0. 0. 0. 0. 0. 0. 0. 0. 0. 0. 0. 0.
 0. 0. 0. 0. 0. 0. 0. 0. 0. 0. 0. 0. 0. 0. 0. 0. 0. 0. 1. 0. 0. 0. 0. 0.
 0. 0. 0. 1. 0. 0. 0. 0. 0. 0. 0. 1. 0. 1. 0. 0. 0. 0. 1. 1. 0. 1. 0. 0.
 1. 1. 0. 0. 1. 1. 0. 0. 1. 1. 1. 0. 1. 0. 1. 1. 1. 0. 0. 0. 0. 1. 1. 0.
 0. 1. 1. 1. 0. 0. 1. 1. 1. 1. 0. 0. 1. 0. 0. 0. 0. 1. 0. 1. 0. 0. 0. 1.
 0. 1. 1. 1. 1. 1. 0. 0. 1. 1. 1. 0. 1. 1. 1. 1. 1. 1. 1. 1. 1. 1. 0.]

>  <MACCS_pki_G>  (79) 
5.632115

>  <MACCS_pki_D>  (79) 
5.854583

>  <MACCS_pki_B>  (79) 
5.447271

>  <MACCS_pki_A>  (79) 
6.034

>  <MACCS_SelB>  (79) 
0.184844

>  <MACCS_SelA>  (79) 
-0.401885

>  <MACCS_SelD>  (79) 
-0.222468

>  <MACCSAvgABSel>  (79) 
-0.10852

>  <Pharm2D_FP>  (79) 
[0. 0. 0. ... 0. 0. 0.]

>  <Pharm2D_pki_G>  (79) 
6.011353

>  <Pharm2D_pki_D>  (79) 
5.434497

>  <Pharm2D_pki_B>  (79) 
5.325899

>  <Pharm2D_pki_A>  (79) 
5.074032

>  <Pharm2D_SelB>  (79) 
0.685454

>  <Pharm2D_SelA>  (79) 
0.937321

>  <Pharm2D_SelD>  (79) 
0.576857

>  <Pharm2DAvgABSel>  (79) 
0.811388

>  <QED>  (79) 
0.749325

$$$$
DB06582
     RDKit          2D

 28 30  0  0  1  0  0  0  0  0999 V2000
    1.0662   -1.8798    0.0000 C   0  0  0  0  0  0  0  0  0  0  0  0
    0.4614   -1.3187    0.0000 C   0  0  0  0  0  0  0  0  0  0  0  0
    0.6450   -0.5144    0.0000 C   0  0  0  0  0  0  0  0  0  0  0  0
    0.0000    0.0000    0.0000 C   0  0  0  0  0  0  0  0  0  0  0  0
   -0.7145   -0.4125    0.0000 C   0  0  0  0  0  0  0  0  0  0  0  0
   -1.4289    0.0000    0.0000 C   0  0  0  0  0  0  0  0  0  0  0  0
   -1.4289    0.8250    0.0000 C   0  0  0  0  0  0  0  0  0  0  0  0
   -0.7145    1.2375    0.0000 C   0  0  0  0  0  0  0  0  0  0  0  0
   -0.0000    0.8250    0.0000 C   0  0  0  0  0  0  0  0  0  0  0  0
    0.6450    1.3394    0.0000 C   0  0  0  0  0  0  0  0  0  0  0  0
    1.4493    1.1558    0.0000 N   0  0  0  0  0  0  0  0  0  0  0  0
    1.8073    0.4125    0.0000 N   0  0  0  0  0  0  0  0  0  0  0  0
    1.4493   -0.3308    0.0000 C   0  0  0  0  0  0  0  0  0  0  0  0
    1.9637   -0.9758    0.0000 C   0  0  0  0  0  0  0  0  0  0  0  0
    0.4614    2.1437    0.0000 C   0  0  0  0  0  0  0  0  0  0  0  0
   -0.3269    2.3869    0.0000 C   0  0  0  0  0  0  0  0  0  0  0  0
   -0.5105    3.1912    0.0000 C   0  0  0  0  0  0  0  0  0  0  0  0
    0.0943    3.7523    0.0000 C   0  0  0  0  0  0  0  0  0  0  0  0
    0.8826    3.5092    0.0000 C   0  0  0  0  0  0  0  0  0  0  0  0
    1.0662    2.7048    0.0000 C   0  0  0  0  0  0  0  0  0  0  0  0
    1.4874    4.0703    0.0000 O   0  0  0  0  0  0  0  0  0  0  0  0
    2.2757    3.8271    0.0000 C   0  0  0  0  0  0  0  0  0  0  0  0
   -0.0893    4.5566    0.0000 O   0  0  0  0  0  0  0  0  0  0  0  0
    0.5155    5.1178    0.0000 C   0  0  0  0  0  0  0  0  0  0  0  0
   -2.1434    1.2375    0.0000 O   0  0  0  0  0  0  0  0  0  0  0  0
   -2.1434    2.0625    0.0000 C   0  0  0  0  0  0  0  0  0  0  0  0
   -2.1434   -0.4125    0.0000 O   0  0  0  0  0  0  0  0  0  0  0  0
   -2.1434   -1.2375    0.0000 C   0  0  0  0  0  0  0  0  0  0  0  0
  1  2  1  0
  3  2  1  6
  3  4  1  0
  4  5  2  0
  5  6  1  0
  6  7  2  0
  7  8  1  0
  8  9  2  0
  4  9  1  0
  9 10  1  0
 10 11  2  0
 11 12  1  0
 12 13  2  0
  3 13  1  0
 13 14  1  0
 10 15  1  0
 15 16  2  0
 16 17  1  0
 17 18  2  0
 18 19  1  0
 19 20  2  0
 15 20  1  0
 19 21  1  0
 21 22  1  0
 18 23  1  0
 23 24  1  0
  7 25  1  0
 25 26  1  0
  6 27  1  0
 27 28  1  0
M  END
>  <ALOGPS_LOGP>  (80) 
4.29

>  <ALOGPS_LOGS>  (80) 
-5.21

>  <ALOGPS_SOLUBILITY>  (80) 
2.39e-03 g/l

>  <DATABASE_NAME>  (80) 
drugbank

>  <DRUGBANK_ID>  (80) 
DB06582

>  <DRUG_GROUPS>  (80) 
investigational

>  <EXACT_MASS>  (80) 
382.189257325

>  <FORMULA>  (80) 
C22H26N2O4

>  <GENERIC_NAME>  (80) 
Dextofisopam

>  <ID>  (80) 


>  <INCHI_IDENTIFIER>  (80) 
InChI=1S/C22H26N2O4/c1-7-15-13(2)23-24-22(14-8-9-18(25-3)19(10-14)26-4)17-12-21(28-6)20(27-5)11-16(15)17/h8-12,15H,7H2,1-6H3/t15-/m0/s1

>  <INCHI_KEY>  (80) 
RUJBDQSFYCKFAA-HNNXBMFYSA-N

>  <INTERNATIONAL_BRANDS>  (80) 
nan

>  <JCHEM_ACCEPTOR_COUNT>  (80) 
6

>  <JCHEM_ATOM_COUNT>  (80) 
54

>  <JCHEM_AVERAGE_POLARIZABILITY>  (80) 
42.275201333913714

>  <JCHEM_BIOAVAILABILITY>  (80) 
1

>  <JCHEM_DONOR_COUNT>  (80) 
0

>  <JCHEM_FORMAL_CHARGE>  (80) 
0

>  <JCHEM_GHOSE_FILTER>  (80) 
1

>  <JCHEM_IUPAC>  (80) 
(5R)-1-(3,4-dimethoxyphenyl)-5-ethyl-7,8-dimethoxy-4-methyl-5H-2,3-benzodiazepine

>  <JCHEM_LOGP>  (80) 
3.8256045320000003

>  <JCHEM_MDDR_LIKE_RULE>  (80) 
1

>  <JCHEM_NUMBER_OF_RINGS>  (80) 
3

>  <JCHEM_PHYSIOLOGICAL_CHARGE>  (80) 
0

>  <JCHEM_PKA>  (80) 
nan

>  <JCHEM_PKA_STRONGEST_ACIDIC>  (80) 
nan

>  <JCHEM_PKA_STRONGEST_BASIC>  (80) 
-2.2382082211651433

>  <JCHEM_POLAR_SURFACE_AREA>  (80) 
61.640000000000015

>  <JCHEM_REFRACTIVITY>  (80) 
109.03469999999999

>  <JCHEM_ROTATABLE_BOND_COUNT>  (80) 
6

>  <JCHEM_RULE_OF_FIVE>  (80) 
1

>  <JCHEM_TRADITIONAL_IUPAC>  (80) 
dextofisopam

>  <JCHEM_VEBER_RULE>  (80) 
0

>  <MOLECULAR_WEIGHT>  (80) 
382.46

>  <PRODUCTS>  (80) 
nan

>  <SALTS>  (80) 
nan

>  <SECONDARY_ACCESSION_NUMBERS>  (80) 
nan

>  <SMILES>  (80) 
CC[C@@H]1C2=CC(OC)=C(OC)C=C2C(=NN=C1C)C1=CC=C(OC)C(OC)=C1

>  <SYNONYMS>  (80) 
Dextofisopam; R-tofisopam

>  <ECFP_FP>  (80) 
<rdkit.DataStructs.cDataStructs.ExplicitBitVect object at 0xa26a11210>

>  <pki_G>  (80) 
5.839276

>  <pki_D>  (80) 
5.432339

>  <pki_B>  (80) 
5.46904

>  <pki_A>  (80) 
5.102155

>  <SelB>  (80) 
0.370236

>  <SelA>  (80) 
0.737121

>  <SelD>  (80) 
0.406937

>  <AvgABSel>  (80) 
0.553679

>  <MACCS_FP>  (80) 
[0. 0. 0. 0. 0. 0. 0. 0. 0. 0. 0. 0. 0. 0. 0. 0. 0. 0. 0. 1. 0. 0. 0. 0.
 0. 0. 0. 0. 0. 0. 0. 0. 0. 0. 0. 0. 0. 0. 0. 0. 0. 0. 0. 0. 0. 0. 0. 0.
 0. 0. 0. 0. 1. 0. 0. 0. 0. 0. 0. 0. 0. 0. 1. 0. 0. 0. 0. 0. 0. 0. 0. 0.
 1. 0. 0. 0. 0. 0. 1. 0. 0. 0. 0. 0. 0. 0. 0. 0. 0. 0. 0. 0. 0. 1. 1. 0.
 0. 0. 0. 0. 0. 1. 0. 0. 0. 1. 0. 0. 0. 0. 0. 0. 0. 1. 1. 0. 1. 0. 0. 1.
 1. 1. 0. 0. 1. 1. 1. 1. 0. 0. 0. 0. 0. 0. 0. 0. 0. 1. 0. 0. 1. 1. 1. 1.
 1. 1. 1. 0. 0. 1. 1. 0. 1. 0. 0. 1. 1. 1. 0. 1. 1. 1. 1. 1. 1. 1. 0.]

>  <MACCS_pki_G>  (80) 
5.737517

>  <MACCS_pki_D>  (80) 
6.022087

>  <MACCS_pki_B>  (80) 
5.487941

>  <MACCS_pki_A>  (80) 
5.585231

>  <MACCS_SelB>  (80) 
0.249576

>  <MACCS_SelA>  (80) 
0.152286

>  <MACCS_SelD>  (80) 
-0.28457

>  <MACCSAvgABSel>  (80) 
0.200931

>  <Pharm2D_FP>  (80) 
[0. 0. 0. ... 0. 0. 0.]

>  <Pharm2D_pki_G>  (80) 
6.200567

>  <Pharm2D_pki_D>  (80) 
5.682659

>  <Pharm2D_pki_B>  (80) 
5.332258

>  <Pharm2D_pki_A>  (80) 
5.567231

>  <Pharm2D_SelB>  (80) 
0.868309

>  <Pharm2D_SelA>  (80) 
0.633336

>  <Pharm2D_SelD>  (80) 
0.517908

>  <Pharm2DAvgABSel>  (80) 
0.750822

>  <QED>  (80) 
0.74089

$$$$
DB08811
     RDKit          2D

 28 30  0  0  1  0  0  0  0  0999 V2000
    2.3920   -1.3924    0.0000 O   0  0  0  0  0  0  0  0  0  0  0  0
    3.9144   -2.1256    0.0000 O   0  0  0  0  0  0  0  0  0  0  0  0
    8.0479   -0.0257    0.0000 O   0  0  0  0  0  0  0  0  0  0  0  0
    7.8019   -1.6573    0.0000 O   0  0  0  0  0  0  0  0  0  0  0  0
    4.8910    1.8496    0.0000 N   0  0  0  0  0  0  0  0  0  0  0  0
    5.4054    1.2046    0.0000 N   0  0  0  0  0  0  0  0  0  0  0  0
    3.5516    1.2046    0.0000 C   0  0  0  0  0  0  0  0  0  0  0  0
    3.7352    0.4003    0.0000 C   0  0  0  0  0  0  0  0  0  0  0  0
    2.7473    1.3882    0.0000 C   0  0  0  0  0  0  0  0  0  0  0  0
    4.4785    0.0423    0.0000 C   0  0  0  0  0  0  0  0  0  0  0  0
    4.0660    1.8496    0.0000 C   0  0  0  0  0  0  0  0  0  0  0  0
    3.0178   -0.0728    0.0000 C   0  0  0  0  0  0  0  0  0  0  0  0
    5.2219    0.4003    0.0000 C   0  0  0  0  0  0  0  0  0  0  0  0
    4.5560   -0.8135    0.0000 C   0  0  0  0  0  0  0  0  0  0  0  0
    2.5041    2.1766    0.0000 C   0  0  0  0  0  0  0  0  0  0  0  0
    3.0754   -0.9302    0.0000 C   0  0  0  0  0  0  0  0  0  0  0  0
    3.8497   -1.3031    0.0000 C   0  0  0  0  0  0  0  0  0  0  0  0
    3.7080    2.5929    0.0000 C   0  0  0  0  0  0  0  0  0  0  0  0
    5.8668   -0.1141    0.0000 C   0  0  0  0  0  0  0  0  0  0  0  0
    6.6349    0.1873    0.0000 C   0  0  0  0  0  0  0  0  0  0  0  0
    5.7439   -0.9299    0.0000 C   0  0  0  0  0  0  0  0  0  0  0  0
    7.2799   -0.3271    0.0000 C   0  0  0  0  0  0  0  0  0  0  0  0
    6.3889   -1.4443    0.0000 C   0  0  0  0  0  0  0  0  0  0  0  0
    7.1569   -1.1429    0.0000 C   0  0  0  0  0  0  0  0  0  0  0  0
    1.6500   -1.0315    0.0000 C   0  0  0  0  0  0  0  0  0  0  0  0
    3.2346   -2.5929    0.0000 C   0  0  0  0  0  0  0  0  0  0  0  0
    8.1708    0.7901    0.0000 C   0  0  0  0  0  0  0  0  0  0  0  0
    7.6790   -2.4731    0.0000 C   0  0  0  0  0  0  0  0  0  0  0  0
  1 16  1  0
  1 25  1  0
  2 17  1  0
  2 26  1  0
  3 22  1  0
  3 27  1  0
  4 24  1  0
  4 28  1  0
  5  6  1  0
  5 11  2  0
  6 13  2  0
  7  8  1  0
  7  9  1  0
  7 11  1  0
  8 10  2  0
  8 12  1  0
  9 15  1  0
 10 13  1  0
 10 14  1  0
 11 18  1  0
 12 16  2  0
 13 19  1  0
 14 17  2  0
 16 17  1  0
 19 20  2  0
 19 21  1  0
 20 22  1  0
 21 23  2  0
 22 24  2  0
 23 24  1  0
M  END
>  <ALOGPS_LOGP>  (81) 
4.29

>  <ALOGPS_LOGS>  (81) 
-5.21

>  <ALOGPS_SOLUBILITY>  (81) 
2.39e-03 g/l

>  <DATABASE_NAME>  (81) 
drugbank

>  <DRUGBANK_ID>  (81) 
DB08811

>  <DRUG_GROUPS>  (81) 
experimental

>  <EXACT_MASS>  (81) 
382.18925733

>  <FORMULA>  (81) 
C22H26N2O4

>  <GENERIC_NAME>  (81) 
Tofisopam

>  <ID>  (81) 
5502

>  <INCHI_IDENTIFIER>  (81) 
InChI=1S/C22H26N2O4/c1-7-15-13(2)23-24-22(14-8-9-18(25-3)19(10-14)26-4)17-12-21(28-6)20(27-5)11-16(15)17/h8-12,15H,7H2,1-6H3

>  <INCHI_KEY>  (81) 
RUJBDQSFYCKFAA-UHFFFAOYSA-N

>  <INTERNATIONAL_BRANDS>  (81) 
Emandaxin; Grandaxin

>  <JCHEM_ACCEPTOR_COUNT>  (81) 
6

>  <JCHEM_ATOM_COUNT>  (81) 
nan

>  <JCHEM_AVERAGE_POLARIZABILITY>  (81) 
42.14405698268847

>  <JCHEM_BIOAVAILABILITY>  (81) 
1

>  <JCHEM_DONOR_COUNT>  (81) 
0

>  <JCHEM_FORMAL_CHARGE>  (81) 
0

>  <JCHEM_GHOSE_FILTER>  (81) 
1

>  <JCHEM_IUPAC>  (81) 
1-(3,4-dimethoxyphenyl)-5-ethyl-7,8-dimethoxy-4-methyl-5H-2,3-benzodiazepine

>  <JCHEM_LOGP>  (81) 
3.8256045320000003

>  <JCHEM_MDDR_LIKE_RULE>  (81) 
1

>  <JCHEM_NUMBER_OF_RINGS>  (81) 
3

>  <JCHEM_PHYSIOLOGICAL_CHARGE>  (81) 
0

>  <JCHEM_PKA>  (81) 
nan

>  <JCHEM_PKA_STRONGEST_ACIDIC>  (81) 
nan

>  <JCHEM_PKA_STRONGEST_BASIC>  (81) 
-2.2382082211651433

>  <JCHEM_POLAR_SURFACE_AREA>  (81) 
61.64

>  <JCHEM_REFRACTIVITY>  (81) 
109.03469999999999

>  <JCHEM_ROTATABLE_BOND_COUNT>  (81) 
6

>  <JCHEM_RULE_OF_FIVE>  (81) 
1

>  <JCHEM_TRADITIONAL_IUPAC>  (81) 
seriel

>  <JCHEM_VEBER_RULE>  (81) 
0

>  <MOLECULAR_WEIGHT>  (81) 
382.4528

>  <PRODUCTS>  (81) 
nan

>  <SALTS>  (81) 
nan

>  <SECONDARY_ACCESSION_NUMBERS>  (81) 
nan

>  <SMILES>  (81) 
CCC1C2=CC(OC)=C(OC)C=C2C(=NN=C1C)C1=CC(OC)=C(OC)C=C1

>  <SYNONYMS>  (81) 
Tofisopam; Tofisopamum

>  <ECFP_FP>  (81) 
<rdkit.DataStructs.cDataStructs.ExplicitBitVect object at 0xa26b5d350>

>  <pki_G>  (81) 
5.839276

>  <pki_D>  (81) 
5.432339

>  <pki_B>  (81) 
5.46904

>  <pki_A>  (81) 
5.102155

>  <SelB>  (81) 
0.370236

>  <SelA>  (81) 
0.737121

>  <SelD>  (81) 
0.406937

>  <AvgABSel>  (81) 
0.553679

>  <MACCS_FP>  (81) 
[0. 0. 0. 0. 0. 0. 0. 0. 0. 0. 0. 0. 0. 0. 0. 0. 0. 0. 0. 1. 0. 0. 0. 0.
 0. 0. 0. 0. 0. 0. 0. 0. 0. 0. 0. 0. 0. 0. 0. 0. 0. 0. 0. 0. 0. 0. 0. 0.
 0. 0. 0. 0. 1. 0. 0. 0. 0. 0. 0. 0. 0. 0. 1. 0. 0. 0. 0. 0. 0. 0. 0. 0.
 1. 0. 0. 0. 0. 0. 1. 0. 0. 0. 0. 0. 0. 0. 0. 0. 0. 0. 0. 0. 0. 1. 1. 0.
 0. 0. 0. 0. 0. 1. 0. 0. 0. 1. 0. 0. 0. 0. 0. 0. 0. 1. 1. 0. 1. 0. 0. 1.
 1. 1. 0. 0. 1. 1. 1. 1. 0. 0. 0. 0. 0. 0. 0. 0. 0. 1. 0. 0. 1. 1. 1. 1.
 1. 1. 1. 0. 0. 1. 1. 0. 1. 0. 0. 1. 1. 1. 0. 1. 1. 1. 1. 1. 1. 1. 0.]

>  <MACCS_pki_G>  (81) 
5.737517

>  <MACCS_pki_D>  (81) 
6.022087

>  <MACCS_pki_B>  (81) 
5.487941

>  <MACCS_pki_A>  (81) 
5.585231

>  <MACCS_SelB>  (81) 
0.249576

>  <MACCS_SelA>  (81) 
0.152286

>  <MACCS_SelD>  (81) 
-0.28457

>  <MACCSAvgABSel>  (81) 
0.200931

>  <Pharm2D_FP>  (81) 
[0. 0. 0. ... 0. 0. 0.]

>  <Pharm2D_pki_G>  (81) 
6.200567

>  <Pharm2D_pki_D>  (81) 
5.682659

>  <Pharm2D_pki_B>  (81) 
5.332258

>  <Pharm2D_pki_A>  (81) 
5.567231

>  <Pharm2D_SelB>  (81) 
0.868309

>  <Pharm2D_SelA>  (81) 
0.633336

>  <Pharm2D_SelD>  (81) 
0.517908

>  <Pharm2DAvgABSel>  (81) 
0.750822

>  <QED>  (81) 
0.74089

$$$$
DB04395
     RDKit          2D

 31 33  0  0  1  0  0  0  0  0999 V2000
   -3.2056    4.3648    0.0000 N   0  0  0  0  0  0  0  0  0  0  0  0
   -2.3986    4.5363    0.0000 C   0  0  0  0  0  0  0  0  0  0  0  0
   -2.1437    5.3209    0.0000 N   0  0  0  0  0  0  0  0  0  0  0  0
   -1.3367    5.4924    0.0000 C   0  0  0  0  0  0  0  0  0  0  0  0
   -0.7847    4.8794    0.0000 N   0  0  0  0  0  0  0  0  0  0  0  0
   -1.0396    4.0947    0.0000 C   0  0  0  0  0  0  0  0  0  0  0  0
   -1.8466    3.9232    0.0000 C   0  0  0  0  0  0  0  0  0  0  0  0
   -1.9328    3.1027    0.0000 N   0  0  0  0  0  0  0  0  0  0  0  0
   -1.1791    2.7672    0.0000 C   0  0  0  0  0  0  0  0  0  0  0  0
   -0.6271    3.3803    0.0000 N   0  0  0  0  0  0  0  0  0  0  0  0
    0.1934    3.2940    0.0000 C   0  0  0  0  0  0  0  0  0  0  0  0
    0.7454    3.9071    0.0000 O   0  0  0  0  0  0  0  0  0  0  0  0
    1.4991    3.5716    0.0000 C   0  0  0  0  0  0  0  0  0  0  0  0
    2.2136    3.9841    0.0000 C   0  0  0  0  0  0  0  0  0  0  0  0
    2.9280    3.5716    0.0000 O   0  0  0  0  0  0  0  0  0  0  0  0
    3.6425    3.9841    0.0000 P   0  0  0  0  0  0  0  0  0  0  0  0
    4.0550    3.2696    0.0000 O   0  0  0  0  0  0  0  0  0  0  0  0
    3.2300    4.6985    0.0000 O   0  0  0  0  0  0  0  0  0  0  0  0
    4.3570    4.3966    0.0000 O   0  0  0  0  0  0  0  0  0  0  0  0
    5.0714    3.9841    0.0000 P   0  0  0  0  0  0  0  0  0  0  0  0
    4.6589    3.2696    0.0000 O   0  0  0  0  0  0  0  0  0  0  0  0
    5.4839    4.6985    0.0000 O   0  0  0  0  0  0  0  0  0  0  0  0
    5.7859    3.5716    0.0000 N   0  0  0  0  0  0  0  0  0  0  0  0
    6.5004    3.9841    0.0000 P   0  0  0  0  0  0  0  0  0  0  0  0
    7.2149    4.3966    0.0000 O   0  0  0  0  0  0  0  0  0  0  0  0
    6.9129    3.2696    0.0000 O   0  0  0  0  0  0  0  0  0  0  0  0
    6.0879    4.6985    0.0000 O   0  0  0  0  0  0  0  0  0  0  0  0
    1.4129    2.7511    0.0000 C   0  0  0  0  0  0  0  0  0  0  0  0
    2.0260    2.1990    0.0000 O   0  0  0  0  0  0  0  0  0  0  0  0
    0.6059    2.5796    0.0000 C   0  0  0  0  0  0  0  0  0  0  0  0
    0.2703    1.8259    0.0000 O   0  0  0  0  0  0  0  0  0  0  0  0
  1  2  1  0
  2  3  2  0
  3  4  1  0
  4  5  2  0
  5  6  1  0
  6  7  2  0
  2  7  1  0
  7  8  1  0
  8  9  2  0
  9 10  1  0
  6 10  1  0
 11 10  1  6
 11 12  1  0
 12 13  1  0
 13 14  1  1
 14 15  1  0
 16 15  1  0
 16 17  1  1
 16 18  2  0
 16 19  1  0
 19 20  1  0
 20 21  1  6
 20 22  2  0
 20 23  1  0
 23 24  1  0
 24 25  1  0
 24 26  1  0
 24 27  2  0
 13 28  1  0
 28 29  1  6
 28 30  1  0
 11 30  1  0
 30 31  1  1
M  END
>  <ALOGPS_LOGP>  (82) 
-0.99

>  <ALOGPS_LOGS>  (82) 
-2.08

>  <ALOGPS_SOLUBILITY>  (82) 
4.17e+00 g/l

>  <DATABASE_NAME>  (82) 
drugbank

>  <DRUGBANK_ID>  (82) 
DB04395

>  <DRUG_GROUPS>  (82) 
experimental

>  <EXACT_MASS>  (82) 
506.011729574

>  <FORMULA>  (82) 
C10H17N6O12P3

>  <GENERIC_NAME>  (82) 
Phosphoaminophosphonic Acid-Adenylate Ester

>  <ID>  (82) 


>  <INCHI_IDENTIFIER>  (82) 
InChI=1S/C10H17N6O12P3/c11-8-5-9(13-2-12-8)16(3-14-5)10-7(18)6(17)4(27-10)1-26-31(24,25)28-30(22,23)15-29(19,20)21/h2-4,6-7,10,17-18H,1H2,(H,24,25)(H2,11,12,13)(H4,15,19,20,21,22,23)/t4-,6-,7+,10+/m0/s1

>  <INCHI_KEY>  (82) 
PVKSNHVPLWYQGJ-FCIPNVEPSA-N

>  <INTERNATIONAL_BRANDS>  (82) 
nan

>  <JCHEM_ACCEPTOR_COUNT>  (82) 
14

>  <JCHEM_ATOM_COUNT>  (82) 
nan

>  <JCHEM_AVERAGE_POLARIZABILITY>  (82) 
39.23399967716654

>  <JCHEM_BIOAVAILABILITY>  (82) 
0

>  <JCHEM_DONOR_COUNT>  (82) 
8

>  <JCHEM_FORMAL_CHARGE>  (82) 
0

>  <JCHEM_GHOSE_FILTER>  (82) 
0

>  <JCHEM_IUPAC>  (82) 
({[({[(2S,3R,4R,5R)-5-(6-amino-9H-purin-9-yl)-3,4-dihydroxyoxolan-2-yl]methoxy}(hydroxy)phosphoryl)oxy](hydroxy)phosphoryl}amino)phosphonic acid

>  <JCHEM_LOGP>  (82) 
-7.649750358484484

>  <JCHEM_MDDR_LIKE_RULE>  (82) 
1

>  <JCHEM_NUMBER_OF_RINGS>  (82) 
3

>  <JCHEM_PHYSIOLOGICAL_CHARGE>  (82) 
-4

>  <JCHEM_PKA>  (82) 
1.433131139516087

>  <JCHEM_PKA_STRONGEST_ACIDIC>  (82) 
-7.034769647737201

>  <JCHEM_PKA_STRONGEST_BASIC>  (82) 
3.5803879789330844

>  <JCHEM_POLAR_SURFACE_AREA>  (82) 
281.93

>  <JCHEM_REFRACTIVITY>  (82) 
97.7641

>  <JCHEM_ROTATABLE_BOND_COUNT>  (82) 
8

>  <JCHEM_RULE_OF_FIVE>  (82) 
0

>  <JCHEM_TRADITIONAL_IUPAC>  (82) 
({[(2S,3R,4R,5R)-5-(6-aminopurin-9-yl)-3,4-dihydroxyoxolan-2-yl]methoxy(hydroxy)phosphoryl}oxy(hydroxy)phosphoryl)aminophosphonic acid

>  <JCHEM_VEBER_RULE>  (82) 
0

>  <MOLECULAR_WEIGHT>  (82) 
506.1963

>  <PRODUCTS>  (82) 
nan

>  <SALTS>  (82) 
nan

>  <SECONDARY_ACCESSION_NUMBERS>  (82) 
EXPT00524

>  <SMILES>  (82) 
NC1=NC=NC2=C1N=CN2[C@@H]1O[C@@H](CO[P@](O)(=O)O[P@@](O)(=O)NP(O)(O)=O)[C@H](O)[C@H]1O

>  <SYNONYMS>  (82) 
nan

>  <ECFP_FP>  (82) 
<rdkit.DataStructs.cDataStructs.ExplicitBitVect object at 0xa26974a30>

>  <pki_G>  (82) 
5.828934

>  <pki_D>  (82) 
5.873024

>  <pki_B>  (82) 
5.365585

>  <pki_A>  (82) 
5.417965

>  <SelB>  (82) 
0.463349

>  <SelA>  (82) 
0.410969

>  <SelD>  (82) 
-0.04409

>  <AvgABSel>  (82) 
0.437159

>  <MACCS_FP>  (82) 
[0. 0. 0. 0. 0. 0. 0. 0. 0. 0. 0. 0. 0. 0. 0. 0. 0. 0. 0. 0. 0. 0. 0. 0.
 0. 0. 0. 0. 0. 1. 0. 0. 0. 0. 0. 0. 0. 0. 1. 0. 0. 0. 0. 1. 0. 0. 0. 0.
 1. 0. 0. 0. 0. 1. 1. 0. 0. 1. 0. 0. 0. 0. 1. 0. 0. 1. 0. 0. 0. 1. 1. 0.
 1. 0. 0. 1. 0. 1. 0. 1. 1. 0. 0. 1. 1. 1. 0. 0. 0. 1. 1. 1. 1. 0. 1. 1.
 1. 1. 1. 0. 0. 1. 1. 0. 0. 1. 1. 0. 0. 1. 1. 0. 1. 0. 0. 0. 0. 1. 0. 0.
 1. 1. 1. 0. 1. 1. 1. 1. 0. 0. 1. 1. 1. 1. 0. 1. 1. 1. 0. 1. 1. 0. 1. 1.
 0. 0. 1. 0. 1. 0. 1. 1. 1. 1. 0. 1. 1. 1. 1. 1. 0. 1. 1. 1. 1. 1. 0.]

>  <MACCS_pki_G>  (82) 
6.381777

>  <MACCS_pki_D>  (82) 
5.828494

>  <MACCS_pki_B>  (82) 
5.76428

>  <MACCS_pki_A>  (82) 
5.777048

>  <MACCS_SelB>  (82) 
0.617496

>  <MACCS_SelA>  (82) 
0.604729

>  <MACCS_SelD>  (82) 
0.553282

>  <MACCSAvgABSel>  (82) 
0.611113

>  <Pharm2D_FP>  (82) 
[0. 0. 0. ... 0. 0. 0.]

>  <Pharm2D_pki_G>  (82) 
6.41666

>  <Pharm2D_pki_D>  (82) 
6.133194

>  <Pharm2D_pki_B>  (82) 
5.589749

>  <Pharm2D_pki_A>  (82) 
5.686663

>  <Pharm2D_SelB>  (82) 
0.82691

>  <Pharm2D_SelA>  (82) 
0.729996

>  <Pharm2D_SelD>  (82) 
0.283465

>  <Pharm2DAvgABSel>  (82) 
0.778453

>  <QED>  (82) 
0.17865

$$$$
DB09082
     RDKit          2D

 32 33  0  0  0  0  0  0  0  0999 V2000
    2.8295    1.2219    0.0000 C   0  0  0  0  0  0  0  0  0  0  0  0
    2.8295    0.3968    0.0000 C   0  0  0  0  0  0  0  0  0  0  0  0
    2.1149   -0.0156    0.0000 C   0  0  0  0  0  0  0  0  0  0  0  0
    1.4003    0.3968    0.0000 C   0  0  0  0  0  0  0  0  0  0  0  0
    1.4003    1.2219    0.0000 C   0  0  0  0  0  0  0  0  0  0  0  0
    2.1149    1.6345    0.0000 C   0  0  0  0  0  0  0  0  0  0  0  0
    0.6748    1.6410    0.0000 C   0  0  0  0  0  0  0  0  0  0  0  0
   -0.0353    1.2309    0.0000 C   0  0  0  0  0  0  0  0  0  0  0  0
   -0.7321    1.6334    0.0000 N   0  0  0  0  0  0  0  0  0  0  0  0
   -1.4359    1.2271    0.0000 C   0  0  0  0  0  0  0  0  0  0  0  0
   -2.1359    1.6315    0.0000 C   0  0  0  0  0  0  0  0  0  0  0  0
   -2.8378    1.2261    0.0000 C   0  0  0  0  0  0  0  0  0  0  0  0
   -3.5388    1.6309    0.0000 C   0  0  0  0  0  0  0  0  0  0  0  0
   -4.2439    1.2208    0.0000 C   0  0  0  0  0  0  0  0  0  0  0  0
   -4.2486    0.4110    0.0000 C   0  0  0  0  0  0  0  0  0  0  0  0
   -3.5496    0.0021    0.0000 O   0  0  0  0  0  0  0  0  0  0  0  0
    0.6748    2.4661    0.0000 O   0  0  0  0  0  0  0  0  0  0  0  0
   -2.8460    0.4030    0.0000 C   0  0  0  0  0  0  0  0  0  0  0  0
   -2.1470   -0.0057    0.0000 C   0  0  0  0  0  0  0  0  0  0  0  0
   -1.4435    0.3950    0.0000 O   0  0  0  0  0  0  0  0  0  0  0  0
   -0.7444   -0.0137    0.0000 C   0  0  0  0  0  0  0  0  0  0  0  0
   -0.7490   -0.8236    0.0000 C   0  0  0  0  0  0  0  0  0  0  0  0
   -0.0500   -1.2324    0.0000 C   0  0  0  0  0  0  0  0  0  0  0  0
   -0.0546   -2.0574    0.0000 C   0  0  0  0  0  0  0  0  0  0  0  0
   -0.7715   -2.4661    0.0000 C   0  0  0  0  0  0  0  0  0  0  0  0
   -1.4705   -2.0571    0.0000 C   0  0  0  0  0  0  0  0  0  0  0  0
   -1.4659   -1.2320    0.0000 C   0  0  0  0  0  0  0  0  0  0  0  0
   -2.1912   -0.8078    0.0000 Cl  0  0  0  0  0  0  0  0  0  0  0  0
    0.6701   -0.8221    0.0000 Cl  0  0  0  0  0  0  0  0  0  0  0  0
    3.5441    1.6345    0.0000 C   0  0  0  0  0  0  0  0  0  0  0  0
    4.2486    1.2276    0.0000 O   0  0  0  0  0  0  0  0  0  0  0  0
    3.5441   -0.0156    0.0000 O   0  0  0  0  0  0  0  0  0  0  0  0
  1  2  2  0
  2  3  1  0
  3  4  2  0
  4  5  1  0
  5  6  2  0
  1  6  1  0
  5  7  1  0
  7  8  1  0
  8  9  1  0
  9 10  1  0
 10 11  1  0
 11 12  1  0
 12 13  1  0
 13 14  1  0
 14 15  1  0
 15 16  1  0
  7 17  1  6
 16 18  1  0
 18 19  1  0
 19 20  1  0
 20 21  1  0
 21 22  1  0
 22 23  2  0
 23 24  1  0
 24 25  2  0
 25 26  1  0
 26 27  2  0
 22 27  1  0
 27 28  1  0
 23 29  1  0
  1 30  1  0
 30 31  1  0
  2 32  1  0
M  END
>  <ALOGPS_LOGP>  (83) 
3.39

>  <ALOGPS_LOGS>  (83) 
-5.61

>  <ALOGPS_SOLUBILITY>  (83) 
1.18e-03 g/l

>  <DATABASE_NAME>  (83) 
drugbank

>  <DRUGBANK_ID>  (83) 
DB09082

>  <DRUG_GROUPS>  (83) 
approved

>  <EXACT_MASS>  (83) 
485.1735786

>  <FORMULA>  (83) 
C24H33Cl2NO5

>  <GENERIC_NAME>  (83) 
Vilanterol

>  <ID>  (83) 


>  <INCHI_IDENTIFIER>  (83) 
InChI=1S/C24H33Cl2NO5/c25-21-6-5-7-22(26)20(21)17-32-13-12-31-11-4-2-1-3-10-27-15-24(30)18-8-9-23(29)19(14-18)16-28/h5-9,14,24,27-30H,1-4,10-13,15-17H2/t24-/m0/s1

>  <INCHI_KEY>  (83) 
DAFYYTQWSAWIGS-DEOSSOPVSA-N

>  <INTERNATIONAL_BRANDS>  (83) 
nan

>  <JCHEM_ACCEPTOR_COUNT>  (83) 
6

>  <JCHEM_ATOM_COUNT>  (83) 
65

>  <JCHEM_AVERAGE_POLARIZABILITY>  (83) 
53.672237963637485

>  <JCHEM_BIOAVAILABILITY>  (83) 
1

>  <JCHEM_DONOR_COUNT>  (83) 
4

>  <JCHEM_FORMAL_CHARGE>  (83) 
0

>  <JCHEM_GHOSE_FILTER>  (83) 
0

>  <JCHEM_IUPAC>  (83) 
4-[(1R)-2-[(6-{2-[(2,6-dichlorophenyl)methoxy]ethoxy}hexyl)amino]-1-hydroxyethyl]-2-(hydroxymethyl)phenol

>  <JCHEM_LOGP>  (83) 
3.598011515615924

>  <JCHEM_MDDR_LIKE_RULE>  (83) 
0

>  <JCHEM_NUMBER_OF_RINGS>  (83) 
2

>  <JCHEM_PHYSIOLOGICAL_CHARGE>  (83) 
1

>  <JCHEM_PKA>  (83) 
14.180494237380925

>  <JCHEM_PKA_STRONGEST_ACIDIC>  (83) 
10.116023889198962

>  <JCHEM_PKA_STRONGEST_BASIC>  (83) 
9.404292511622405

>  <JCHEM_POLAR_SURFACE_AREA>  (83) 
91.18

>  <JCHEM_REFRACTIVITY>  (83) 
129.08649999999997

>  <JCHEM_ROTATABLE_BOND_COUNT>  (83) 
16

>  <JCHEM_RULE_OF_FIVE>  (83) 
1

>  <JCHEM_TRADITIONAL_IUPAC>  (83) 
vilanterol

>  <JCHEM_VEBER_RULE>  (83) 
0

>  <MOLECULAR_WEIGHT>  (83) 
486.43

>  <PRODUCTS>  (83) 
Anoro; Anoro Ellipta; Breo Ellipta; Trelegy Ellipta

>  <SALTS>  (83) 
Vilanterol trifenatate

>  <SECONDARY_ACCESSION_NUMBERS>  (83) 
DB06577

>  <SMILES>  (83) 
OCC1=C(O)C=CC(=C1)[C@@H](O)CNCCCCCCOCCOCC1=C(Cl)C=CC=C1Cl

>  <SYNONYMS>  (83) 
Vilanterol; Vilantérol; Vilanterolum

>  <ECFP_FP>  (83) 
<rdkit.DataStructs.cDataStructs.ExplicitBitVect object at 0xa26b784e0>

>  <pki_G>  (83) 
5.824192

>  <pki_D>  (83) 
5.568648

>  <pki_B>  (83) 
5.551968

>  <pki_A>  (83) 
5.127807

>  <SelB>  (83) 
0.272224

>  <SelA>  (83) 
0.696386

>  <SelD>  (83) 
0.255545

>  <AvgABSel>  (83) 
0.484305

>  <MACCS_FP>  (83) 
[0. 0. 0. 0. 0. 0. 0. 0. 0. 0. 0. 0. 0. 0. 0. 0. 0. 0. 0. 0. 0. 0. 0. 0.
 0. 0. 0. 0. 0. 0. 0. 0. 0. 0. 0. 0. 0. 0. 0. 0. 0. 0. 0. 0. 0. 0. 0. 0.
 0. 0. 0. 0. 0. 1. 1. 0. 0. 0. 0. 0. 0. 0. 0. 0. 0. 0. 0. 0. 0. 0. 0. 0.
 1. 0. 0. 0. 0. 0. 0. 0. 0. 0. 1. 0. 0. 0. 1. 1. 0. 1. 1. 1. 0. 0. 0. 1.
 0. 0. 0. 0. 1. 0. 0. 1. 1. 0. 0. 1. 0. 1. 0. 1. 0. 1. 0. 0. 0. 0. 1. 0.
 0. 0. 0. 0. 0. 1. 1. 1. 1. 1. 0. 1. 1. 0. 1. 0. 0. 0. 1. 1. 1. 0. 0. 1.
 1. 1. 1. 1. 0. 0. 1. 1. 1. 1. 0. 1. 0. 1. 1. 1. 0. 1. 1. 1. 1. 1. 0.]

>  <MACCS_pki_G>  (83) 
6.075949

>  <MACCS_pki_D>  (83) 
5.965593

>  <MACCS_pki_B>  (83) 
5.958439

>  <MACCS_pki_A>  (83) 
6.041834

>  <MACCS_SelB>  (83) 
0.11751

>  <MACCS_SelA>  (83) 
0.034116

>  <MACCS_SelD>  (83) 
0.110357

>  <MACCSAvgABSel>  (83) 
0.075813

>  <Pharm2D_FP>  (83) 
[0. 0. 0. ... 0. 0. 0.]

>  <Pharm2D_pki_G>  (83) 
6.074109

>  <Pharm2D_pki_D>  (83) 
5.555173

>  <Pharm2D_pki_B>  (83) 
5.372767

>  <Pharm2D_pki_A>  (83) 
5.352621

>  <Pharm2D_SelB>  (83) 
0.701341

>  <Pharm2D_SelA>  (83) 
0.721487

>  <Pharm2D_SelD>  (83) 
0.518936

>  <Pharm2DAvgABSel>  (83) 
0.711414

>  <QED>  (83) 
0.259307

$$$$
DB03086
     RDKit          2D

 22 23  0  0  0  0  0  0  0  0999 V2000
   -3.2138   -0.4254    0.0000 C   0  0  0  0  0  0  0  0  0  0  0  0
   -3.9283   -0.0129    0.0000 C   0  0  0  0  0  0  0  0  0  0  0  0
   -3.9283    0.8121    0.0000 C   0  0  0  0  0  0  0  0  0  0  0  0
   -3.2138    1.2246    0.0000 C   0  0  0  0  0  0  0  0  0  0  0  0
   -2.4994    0.8121    0.0000 C   0  0  0  0  0  0  0  0  0  0  0  0
   -2.4994   -0.0129    0.0000 C   0  0  0  0  0  0  0  0  0  0  0  0
   -1.7849   -0.4254    0.0000 C   0  0  0  0  0  0  0  0  0  0  0  0
   -1.0704   -0.0129    0.0000 C   0  0  0  0  0  0  0  0  0  0  0  0
   -1.0704    0.8121    0.0000 N   0  0  0  0  0  0  0  0  0  0  0  0
   -0.3560   -0.4254    0.0000 C   0  0  0  0  0  0  0  0  0  0  0  0
   -0.3560   -1.2504    0.0000 O   0  0  0  0  0  0  0  0  0  0  0  0
    0.3585   -0.0129    0.0000 C   0  0  0  0  0  0  0  0  0  0  0  0
    0.3585    0.8121    0.0000 O   0  0  0  0  0  0  0  0  0  0  0  0
    1.0730   -0.4254    0.0000 N   0  0  0  0  0  0  0  0  0  0  0  0
    1.7875   -0.0129    0.0000 N   0  0  0  0  0  0  0  0  0  0  0  0
    2.5019   -0.4254    0.0000 C   0  0  0  0  0  0  0  0  0  0  0  0
    3.2164   -0.0129    0.0000 C   0  0  0  0  0  0  0  0  0  0  0  0
    3.9309   -0.4254    0.0000 C   0  0  0  0  0  0  0  0  0  0  0  0
    3.9309   -1.2504    0.0000 C   0  0  0  0  0  0  0  0  0  0  0  0
    3.2164   -1.6629    0.0000 C   0  0  0  0  0  0  0  0  0  0  0  0
    2.5019   -1.2504    0.0000 C   0  0  0  0  0  0  0  0  0  0  0  0
    4.6453   -1.6629    0.0000 C   0  0  0  0  0  0  0  0  0  0  0  0
  1  2  1  0
  1  6  1  0
  2  3  1  0
  3  4  1  0
  4  5  1  0
  5  6  1  0
  6  7  1  0
  7  8  1  0
  8  9  1  1
  8 10  1  0
 10 11  1  1
 10 12  1  0
 12 13  2  0
 12 14  1  0
 14 15  1  0
 15 16  1  0
 16 17  2  0
 16 21  1  0
 17 18  1  0
 18 19  2  0
 19 20  1  0
 19 22  1  0
 20 21  2  0
M  END
>  <ALOGPS_LOGP>  (84) 
2.41

>  <ALOGPS_LOGS>  (84) 
-3.51

>  <ALOGPS_SOLUBILITY>  (84) 
9.52e-02 g/l

>  <DATABASE_NAME>  (84) 
drugbank

>  <DRUGBANK_ID>  (84) 
DB03086

>  <DRUG_GROUPS>  (84) 
experimental

>  <EXACT_MASS>  (84) 
305.210327123

>  <FORMULA>  (84) 
C17H27N3O2

>  <GENERIC_NAME>  (84) 
N'-(2s,3r)-3-Amino-4-Cyclohexyl-2-Hydroxy-Butano-N-(4-Methylphenyl)Hydrazide

>  <ID>  (84) 
AO2

>  <INCHI_IDENTIFIER>  (84) 
InChI=1S/C17H27N3O2/c1-12-7-9-14(10-8-12)19-20-17(22)16(21)15(18)11-13-5-3-2-4-6-13/h7-10,13,15-16,19,21H,2-6,11,18H2,1H3,(H,20,22)/t15-,16+/m1/s1

>  <INCHI_KEY>  (84) 
IQMLIGOOOFEBAH-CVEARBPZSA-N

>  <INTERNATIONAL_BRANDS>  (84) 
nan

>  <JCHEM_ACCEPTOR_COUNT>  (84) 
4

>  <JCHEM_ATOM_COUNT>  (84) 
nan

>  <JCHEM_AVERAGE_POLARIZABILITY>  (84) 
34.7464542691497

>  <JCHEM_BIOAVAILABILITY>  (84) 
1

>  <JCHEM_DONOR_COUNT>  (84) 
4

>  <JCHEM_FORMAL_CHARGE>  (84) 
0

>  <JCHEM_GHOSE_FILTER>  (84) 
1

>  <JCHEM_IUPAC>  (84) 
(2S,3R)-3-amino-4-cyclohexyl-2-hydroxy-N'-(4-methylphenyl)butanehydrazide

>  <JCHEM_LOGP>  (84) 
2.723725845666666

>  <JCHEM_MDDR_LIKE_RULE>  (84) 
0

>  <JCHEM_NUMBER_OF_RINGS>  (84) 
2

>  <JCHEM_PHYSIOLOGICAL_CHARGE>  (84) 
1

>  <JCHEM_PKA>  (84) 
14.227882950514275

>  <JCHEM_PKA_STRONGEST_ACIDIC>  (84) 
12.44657507893848

>  <JCHEM_PKA_STRONGEST_BASIC>  (84) 
8.767497784359675

>  <JCHEM_POLAR_SURFACE_AREA>  (84) 
87.38

>  <JCHEM_REFRACTIVITY>  (84) 
88.6782

>  <JCHEM_ROTATABLE_BOND_COUNT>  (84) 
6

>  <JCHEM_RULE_OF_FIVE>  (84) 
1

>  <JCHEM_TRADITIONAL_IUPAC>  (84) 
(2S,3R)-3-amino-4-cyclohexyl-2-hydroxy-N'-(4-methylphenyl)butanehydrazide

>  <JCHEM_VEBER_RULE>  (84) 
0

>  <MOLECULAR_WEIGHT>  (84) 
305.4152

>  <PRODUCTS>  (84) 
nan

>  <SALTS>  (84) 
nan

>  <SECONDARY_ACCESSION_NUMBERS>  (84) 
EXPT00527

>  <SMILES>  (84) 
[H][C@@](N)(CC1CCCCC1)[C@]([H])(O)C(=O)NNC1=CC=C(C)C=C1

>  <SYNONYMS>  (84) 
nan

>  <ECFP_FP>  (84) 
<rdkit.DataStructs.cDataStructs.ExplicitBitVect object at 0xa267a0620>

>  <pki_G>  (84) 
5.815558

>  <pki_D>  (84) 
5.688625

>  <pki_B>  (84) 
5.307501

>  <pki_A>  (84) 
5.667271

>  <SelB>  (84) 
0.508058

>  <SelA>  (84) 
0.148287

>  <SelD>  (84) 
0.126933

>  <AvgABSel>  (84) 
0.328172

>  <MACCS_FP>  (84) 
[0. 0. 0. 0. 0. 0. 0. 0. 0. 0. 0. 0. 0. 0. 0. 0. 0. 0. 0. 0. 0. 0. 0. 0.
 0. 0. 0. 0. 0. 0. 0. 0. 0. 0. 0. 0. 0. 0. 0. 0. 0. 0. 0. 0. 0. 0. 0. 0.
 0. 0. 0. 0. 1. 1. 1. 0. 0. 0. 0. 0. 0. 0. 0. 0. 0. 0. 0. 0. 1. 1. 0. 0.
 1. 0. 0. 0. 0. 0. 0. 0. 1. 0. 0. 0. 1. 0. 0. 0. 0. 0. 1. 1. 1. 0. 1. 1.
 0. 1. 0. 0. 0. 0. 0. 0. 1. 0. 0. 0. 0. 0. 1. 1. 0. 0. 0. 0. 0. 1. 1. 0.
 0. 0. 0. 0. 1. 0. 0. 0. 1. 1. 0. 1. 0. 1. 0. 1. 0. 0. 0. 1. 0. 0. 1. 0.
 0. 1. 0. 1. 0. 0. 0. 1. 1. 0. 1. 1. 1. 1. 1. 1. 1. 1. 1. 1. 1. 1. 0.]

>  <MACCS_pki_G>  (84) 
5.98605

>  <MACCS_pki_D>  (84) 
5.972699

>  <MACCS_pki_B>  (84) 
5.391446

>  <MACCS_pki_A>  (84) 
5.707

>  <MACCS_SelB>  (84) 
0.594604

>  <MACCS_SelA>  (84) 
0.27905

>  <MACCS_SelD>  (84) 
0.013351

>  <MACCSAvgABSel>  (84) 
0.436827

>  <Pharm2D_FP>  (84) 
[0. 0. 0. ... 0. 0. 0.]

>  <Pharm2D_pki_G>  (84) 
6.176995

>  <Pharm2D_pki_D>  (84) 
5.447804

>  <Pharm2D_pki_B>  (84) 
5.462924

>  <Pharm2D_pki_A>  (84) 
5.371096

>  <Pharm2D_SelB>  (84) 
0.714071

>  <Pharm2D_SelA>  (84) 
0.805899

>  <Pharm2D_SelD>  (84) 
0.729191

>  <Pharm2DAvgABSel>  (84) 
0.759985

>  <QED>  (84) 
0.606155

$$$$
DB07560
     RDKit          2D

 22 23  0  0  0  0  0  0  0  0999 V2000
  -10.0180    0.2109    0.0000 O   0  0  0  0  0  0  0  0  0  0  0  0
  -10.0180   -0.6141    0.0000 C   0  0  0  0  0  0  0  0  0  0  0  0
  -10.7324   -1.0266    0.0000 C   0  0  0  0  0  0  0  0  0  0  0  0
  -10.7324   -1.8516    0.0000 C   0  0  0  0  0  0  0  0  0  0  0  0
  -11.4469   -2.2641    0.0000 C   0  0  0  0  0  0  0  0  0  0  0  0
  -12.1614   -1.8516    0.0000 C   0  0  0  0  0  0  0  0  0  0  0  0
  -12.1614   -1.0266    0.0000 C   0  0  0  0  0  0  0  0  0  0  0  0
  -11.4469   -0.6141    0.0000 C   0  0  0  0  0  0  0  0  0  0  0  0
   -9.3035   -1.0266    0.0000 N   0  0  0  0  0  0  0  0  0  0  0  0
   -8.5890   -0.6141    0.0000 C   0  0  0  0  0  0  0  0  0  0  0  0
   -8.5890    0.2109    0.0000 C   0  0  0  0  0  0  0  0  0  0  0  0
   -7.8745    0.6234    0.0000 C   0  0  0  0  0  0  0  0  0  0  0  0
   -9.3035    0.6234    0.0000 C   0  0  0  0  0  0  0  0  0  0  0  0
   -7.8745   -1.0266    0.0000 C   0  0  0  0  0  0  0  0  0  0  0  0
   -7.8745   -1.8516    0.0000 O   0  0  0  0  0  0  0  0  0  0  0  0
   -7.1601   -0.6141    0.0000 N   0  0  0  0  0  0  0  0  0  0  0  0
   -6.4456   -1.0266    0.0000 C   0  0  0  0  0  0  0  0  0  0  0  0
   -5.7311   -0.6141    0.0000 C   0  0  0  0  0  0  0  0  0  0  0  0
   -5.0167   -1.0266    0.0000 C   0  0  0  0  0  0  0  0  0  0  0  0
   -5.0167   -1.8516    0.0000 N   0  0  0  0  0  0  0  0  0  0  0  0
   -5.7311   -2.2641    0.0000 C   0  0  0  0  0  0  0  0  0  0  0  0
   -6.4456   -1.8516    0.0000 C   0  0  0  0  0  0  0  0  0  0  0  0
  1  2  2  0
  2  3  1  0
  2  9  1  0
  3  4  1  0
  3  8  1  0
  4  5  1  0
  5  6  1  0
  6  7  1  0
  7  8  1  0
 10  9  1  1
 10 11  1  0
 10 14  1  0
 11 12  1  0
 11 13  1  0
 14 15  2  0
 14 16  1  0
 16 17  1  0
 17 18  2  0
 17 22  1  0
 18 19  1  0
 19 20  2  0
 20 21  1  0
 21 22  2  0
M  END
>  <ALOGPS_LOGP>  (85) 
2.33

>  <ALOGPS_LOGS>  (85) 
-3.17

>  <ALOGPS_SOLUBILITY>  (85) 
2.07e-01 g/l

>  <DATABASE_NAME>  (85) 
drugbank

>  <DRUGBANK_ID>  (85) 
DB07560

>  <DRUG_GROUPS>  (85) 
experimental

>  <EXACT_MASS>  (85) 
303.194677059

>  <FORMULA>  (85) 
C17H25N3O2

>  <GENERIC_NAME>  (85) 
N-[(1S)-2-methyl-1-(pyridin-4-ylcarbamoyl)propyl]cyclohexanecarboxamide

>  <ID>  (85) 
CII

>  <INCHI_IDENTIFIER>  (85) 
InChI=1S/C17H25N3O2/c1-12(2)15(17(22)19-14-8-10-18-11-9-14)20-16(21)13-6-4-3-5-7-13/h8-13,15H,3-7H2,1-2H3,(H,20,21)(H,18,19,22)/t15-/m0/s1

>  <INCHI_KEY>  (85) 
VYLDPSVXLWTIAJ-HNNXBMFYSA-N

>  <INTERNATIONAL_BRANDS>  (85) 
nan

>  <JCHEM_ACCEPTOR_COUNT>  (85) 
3

>  <JCHEM_ATOM_COUNT>  (85) 
nan

>  <JCHEM_AVERAGE_POLARIZABILITY>  (85) 
33.75838282090329

>  <JCHEM_BIOAVAILABILITY>  (85) 
1

>  <JCHEM_DONOR_COUNT>  (85) 
2

>  <JCHEM_FORMAL_CHARGE>  (85) 
0

>  <JCHEM_GHOSE_FILTER>  (85) 
1

>  <JCHEM_IUPAC>  (85) 
(2S)-2-(cyclohexylformamido)-3-methyl-N-(pyridin-4-yl)butanamide

>  <JCHEM_LOGP>  (85) 
2.457762198000001

>  <JCHEM_MDDR_LIKE_RULE>  (85) 
0

>  <JCHEM_NUMBER_OF_RINGS>  (85) 
2

>  <JCHEM_PHYSIOLOGICAL_CHARGE>  (85) 
0

>  <JCHEM_PKA>  (85) 
13.159654659475102

>  <JCHEM_PKA_STRONGEST_ACIDIC>  (85) 
12.364519592995677

>  <JCHEM_PKA_STRONGEST_BASIC>  (85) 
5.63121385632492

>  <JCHEM_POLAR_SURFACE_AREA>  (85) 
71.09

>  <JCHEM_REFRACTIVITY>  (85) 
86.2593

>  <JCHEM_ROTATABLE_BOND_COUNT>  (85) 
5

>  <JCHEM_RULE_OF_FIVE>  (85) 
1

>  <JCHEM_TRADITIONAL_IUPAC>  (85) 
(2S)-2-(cyclohexylformamido)-3-methyl-N-(pyridin-4-yl)butanamide

>  <JCHEM_VEBER_RULE>  (85) 
0

>  <MOLECULAR_WEIGHT>  (85) 
303.3993

>  <PRODUCTS>  (85) 
nan

>  <SALTS>  (85) 
nan

>  <SECONDARY_ACCESSION_NUMBERS>  (85) 
nan

>  <SMILES>  (85) 
[H][C@](NC(=O)C1CCCCC1)(C(C)C)C(=O)NC1=CC=NC=C1

>  <SYNONYMS>  (85) 
nan

>  <ECFP_FP>  (85) 
<rdkit.DataStructs.cDataStructs.ExplicitBitVect object at 0xa26a99300>

>  <pki_G>  (85) 
5.803235

>  <pki_D>  (85) 
5.600356

>  <pki_B>  (85) 
5.305878

>  <pki_A>  (85) 
5.717216

>  <SelB>  (85) 
0.497357

>  <SelA>  (85) 
0.086019

>  <SelD>  (85) 
0.202879

>  <AvgABSel>  (85) 
0.291688

>  <MACCS_FP>  (85) 
[0. 0. 0. 0. 0. 0. 0. 0. 0. 0. 0. 0. 0. 0. 0. 0. 0. 0. 0. 0. 0. 0. 0. 0.
 0. 0. 0. 0. 0. 0. 0. 0. 0. 0. 0. 0. 0. 0. 0. 0. 0. 0. 0. 0. 0. 0. 0. 0.
 0. 0. 0. 0. 0. 0. 1. 0. 0. 0. 0. 0. 0. 0. 0. 0. 0. 1. 0. 0. 0. 0. 0. 0.
 0. 0. 1. 0. 0. 0. 0. 1. 1. 0. 0. 0. 0. 0. 0. 0. 0. 0. 1. 1. 1. 0. 0. 1.
 0. 0. 1. 0. 0. 0. 0. 0. 0. 0. 0. 0. 0. 0. 1. 0. 0. 0. 0. 0. 0. 1. 1. 0.
 0. 1. 0. 0. 0. 0. 0. 0. 1. 1. 0. 1. 0. 1. 0. 1. 1. 1. 0. 0. 0. 0. 1. 0.
 0. 1. 0. 1. 0. 1. 0. 1. 0. 0. 1. 0. 1. 0. 1. 1. 1. 1. 1. 1. 1. 1. 0.]

>  <MACCS_pki_G>  (85) 
5.790232

>  <MACCS_pki_D>  (85) 
5.825101

>  <MACCS_pki_B>  (85) 
5.448075

>  <MACCS_pki_A>  (85) 
5.83719

>  <MACCS_SelB>  (85) 
0.342156

>  <MACCS_SelA>  (85) 
-0.046959

>  <MACCS_SelD>  (85) 
-0.03487

>  <MACCSAvgABSel>  (85) 
0.147599

>  <Pharm2D_FP>  (85) 
[0. 0. 0. ... 0. 0. 0.]

>  <Pharm2D_pki_G>  (85) 
6.026976

>  <Pharm2D_pki_D>  (85) 
5.413306

>  <Pharm2D_pki_B>  (85) 
5.346598

>  <Pharm2D_pki_A>  (85) 
4.846609

>  <Pharm2D_SelB>  (85) 
0.680379

>  <Pharm2D_SelA>  (85) 
1.180367

>  <Pharm2D_SelD>  (85) 
0.61367

>  <Pharm2DAvgABSel>  (85) 
0.930373

>  <QED>  (85) 
0.878326

$$$$
DB14955
     RDKit          2D

 36 40  0  0  1  0  0  0  0  0999 V2000
    3.4321    4.0565    0.0000 C   0  0  0  0  0  0  0  0  0  0  0  0
    2.6820    3.7131    0.0000 O   0  0  0  0  0  0  0  0  0  0  0  0
    2.6044    2.8918    0.0000 C   0  0  0  0  0  0  0  0  0  0  0  0
    3.2768    2.4139    0.0000 C   0  0  0  0  0  0  0  0  0  0  0  0
    3.1992    1.5925    0.0000 O   0  0  0  0  0  0  0  0  0  0  0  0
    2.4491    1.2491    0.0000 C   0  0  0  0  0  0  0  0  0  0  0  0
    1.7766    1.7270    0.0000 C   0  0  0  0  0  0  0  0  0  0  0  0
    1.8542    2.5483    0.0000 C   0  0  0  0  0  0  0  0  0  0  0  0
    1.1818    3.0263    0.0000 N   0  0  0  0  0  0  0  0  0  0  0  0
    0.4316    2.6828    0.0000 C   0  0  0  0  0  0  0  0  0  0  0  0
   -0.2871    3.0878    0.0000 C   0  0  0  0  0  0  0  0  0  0  0  0
   -0.8944    2.5294    0.0000 C   0  0  0  0  0  0  0  0  0  0  0  0
   -0.5510    1.7793    0.0000 C   0  0  0  0  0  0  0  0  0  0  0  0
    0.2686    1.8741    0.0000 C   0  0  0  0  0  0  0  0  0  0  0  0
   -1.2566    1.3519    0.0000 C   0  0  0  0  0  0  0  0  0  0  0  0
   -1.9796    1.7494    0.0000 C   0  0  0  0  0  0  0  0  0  0  0  0
   -1.2393    0.5271    0.0000 C   0  0  0  0  0  0  0  0  0  0  0  0
   -0.5510    0.9543    0.0000 C   0  0  0  0  0  0  0  0  0  0  0  0
   -0.8865    0.2006    0.0000 O   0  0  0  0  0  0  0  0  0  0  0  0
    0.1635    0.5418    0.0000 N   0  0  0  0  0  0  0  0  0  0  0  0
    0.1635   -0.2832    0.0000 C   0  0  0  0  0  0  0  0  0  0  0  0
    0.8780   -0.6957    0.0000 C   0  0  0  0  0  0  0  0  0  0  0  0
    0.6717    0.1293    0.0000 C   0  0  0  0  0  0  0  0  0  0  0  0
    0.8780    0.9543    0.0000 C   0  0  0  0  0  0  0  0  0  0  0  0
    1.5925    0.5418    0.0000 C   0  0  0  0  0  0  0  0  0  0  0  0
    1.5925   -0.2832    0.0000 N   0  0  0  0  0  0  0  0  0  0  0  0
    2.3069   -0.6957    0.0000 C   0  0  0  0  0  0  0  0  0  0  0  0
    3.0214   -0.2832    0.0000 N   0  0  0  0  0  0  0  0  0  0  0  0
    3.7359   -0.6957    0.0000 C   0  0  0  0  0  0  0  0  0  0  0  0
    3.7359   -1.5207    0.0000 N   0  0  0  0  0  0  0  0  0  0  0  0
    3.0214   -1.9332    0.0000 C   0  0  0  0  0  0  0  0  0  0  0  0
    2.3069   -1.5207    0.0000 C   0  0  0  0  0  0  0  0  0  0  0  0
    3.0214   -2.7582    0.0000 C   0  0  0  0  0  0  0  0  0  0  0  0
    3.0214   -3.5832    0.0000 F   0  0  0  0  0  0  0  0  0  0  0  0
    2.1964   -2.7582    0.0000 F   0  0  0  0  0  0  0  0  0  0  0  0
    3.8464   -2.7582    0.0000 F   0  0  0  0  0  0  0  0  0  0  0  0
  1  2  1  0
  3  2  1  6
  3  4  1  0
  4  5  1  0
  5  6  1  0
  6  7  1  0
  8  7  1  0
  3  8  1  0
  8  9  1  6
 10  9  1  1
 10 11  1  0
 11 12  1  0
 13 12  1  0
 13 14  1  0
 10 14  1  0
 13 15  1  6
 15 16  1  0
 15 17  1  0
 13 18  1  0
 18 19  2  0
 18 20  1  0
 20 21  1  0
 22 21  1  6
 22 23  1  0
 24 23  1  0
 24 20  1  0
 24 25  1  6
 25 26  1  0
 22 26  1  0
 26 27  1  0
 27 28  2  0
 28 29  1  0
 29 30  2  0
 30 31  1  0
 31 32  2  0
 27 32  1  0
 31 33  1  0
 33 34  1  0
 33 35  1  0
 33 36  1  0
M  END
>  <ALOGPS_LOGP>  (86) 
2.22

>  <ALOGPS_LOGS>  (86) 
-3.86

>  <ALOGPS_SOLUBILITY>  (86) 
7.06e-02 g/l

>  <DATABASE_NAME>  (86) 
drugbank

>  <DRUGBANK_ID>  (86) 
DB14955

>  <DRUG_GROUPS>  (86) 
investigational

>  <EXACT_MASS>  (86) 
511.277024528

>  <FORMULA>  (86) 
C25H36F3N5O3

>  <GENERIC_NAME>  (86) 
PF-04634817

>  <ID>  (86) 


>  <INCHI_IDENTIFIER>  (86) 
InChI=1S/C25H36F3N5O3/c1-15(2)24(6-4-16(10-24)31-19-5-7-36-13-20(19)35-3)23(34)33-12-17-8-18(33)11-32(17)22-9-21(25(26,27)28)29-14-30-22/h9,14-20,31H,4-8,10-13H2,1-3H3/t16-,17+,18+,19+,20-,24+/m1/s1

>  <INCHI_KEY>  (86) 
MCRWZBYTLVCCJJ-DKALBXGISA-N

>  <INTERNATIONAL_BRANDS>  (86) 
nan

>  <JCHEM_ACCEPTOR_COUNT>  (86) 
7

>  <JCHEM_ATOM_COUNT>  (86) 
72

>  <JCHEM_AVERAGE_POLARIZABILITY>  (86) 
51.839591584700834

>  <JCHEM_BIOAVAILABILITY>  (86) 
1

>  <JCHEM_DONOR_COUNT>  (86) 
1

>  <JCHEM_FORMAL_CHARGE>  (86) 
0

>  <JCHEM_GHOSE_FILTER>  (86) 
0

>  <JCHEM_IUPAC>  (86) 
(3S,4S)-3-methoxy-N-[(1R,3S)-3-(propan-2-yl)-3-[(1S,4S)-5-[6-(trifluoromethyl)pyrimidin-4-yl]-2,5-diazabicyclo[2.2.1]heptane-2-carbonyl]cyclopentyl]oxan-4-amine

>  <JCHEM_LOGP>  (86) 
2.9074521093333314

>  <JCHEM_MDDR_LIKE_RULE>  (86) 
1

>  <JCHEM_NUMBER_OF_RINGS>  (86) 
5

>  <JCHEM_PHYSIOLOGICAL_CHARGE>  (86) 
1

>  <JCHEM_PKA>  (86) 
nan

>  <JCHEM_PKA_STRONGEST_ACIDIC>  (86) 
nan

>  <JCHEM_PKA_STRONGEST_BASIC>  (86) 
9.983313894744933

>  <JCHEM_POLAR_SURFACE_AREA>  (86) 
79.82000000000001

>  <JCHEM_REFRACTIVITY>  (86) 
128.3014

>  <JCHEM_ROTATABLE_BOND_COUNT>  (86) 
7

>  <JCHEM_RULE_OF_FIVE>  (86) 
0

>  <JCHEM_TRADITIONAL_IUPAC>  (86) 
(2R)-14-fluoro-2-methyl-6,9,10,19-tetraazapentacyclo[14.2.1.0^{2,6}.0^{8,18}.0^{12,17}]nonadeca-1(18),8,12(17),13,15-pentaen-11-one

>  <JCHEM_VEBER_RULE>  (86) 
0

>  <MOLECULAR_WEIGHT>  (86) 
511.59

>  <PRODUCTS>  (86) 
nan

>  <SALTS>  (86) 
nan

>  <SECONDARY_ACCESSION_NUMBERS>  (86) 
nan

>  <SMILES>  (86) 
CO[C@@H]1COCC[C@@H]1N[C@@H]1CC[C@](C1)(C(C)C)C(=O)N1C[C@@H]2C[C@H]1CN2C1=NC=NC(=C1)C(F)(F)F

>  <SYNONYMS>  (86) 
nan

>  <ECFP_FP>  (86) 
<rdkit.DataStructs.cDataStructs.ExplicitBitVect object at 0xa26d3e7b0>

>  <pki_G>  (86) 
5.797361

>  <pki_D>  (86) 
5.910044

>  <pki_B>  (86) 
5.328944

>  <pki_A>  (86) 
5.501763

>  <SelB>  (86) 
0.468418

>  <SelA>  (86) 
0.295598

>  <SelD>  (86) 
-0.112683

>  <AvgABSel>  (86) 
0.382008

>  <MACCS_FP>  (86) 
[0. 0. 0. 0. 0. 0. 0. 0. 0. 0. 0. 0. 0. 0. 0. 0. 0. 0. 0. 0. 0. 0. 0. 0.
 0. 0. 0. 0. 0. 0. 0. 0. 0. 0. 0. 0. 0. 0. 1. 0. 0. 0. 1. 0. 0. 0. 0. 0.
 0. 0. 0. 0. 0. 0. 0. 0. 0. 1. 0. 0. 0. 0. 1. 0. 0. 1. 1. 0. 0. 0. 0. 0.
 1. 0. 1. 1. 0. 1. 0. 1. 1. 0. 0. 1. 0. 1. 1. 0. 0. 0. 1. 1. 1. 1. 0. 1.
 1. 1. 1. 0. 1. 0. 0. 0. 1. 1. 1. 1. 1. 1. 1. 1. 1. 0. 0. 0. 1. 1. 1. 0.
 1. 1. 1. 0. 0. 0. 1. 1. 1. 1. 0. 0. 1. 1. 1. 1. 0. 1. 1. 0. 0. 1. 1. 1.
 0. 1. 1. 1. 1. 1. 1. 1. 1. 1. 1. 0. 1. 1. 1. 1. 1. 1. 1. 1. 1. 1. 0.]

>  <MACCS_pki_G>  (86) 
5.98166

>  <MACCS_pki_D>  (86) 
5.72394

>  <MACCS_pki_B>  (86) 
5.507571

>  <MACCS_pki_A>  (86) 
6.151609

>  <MACCS_SelB>  (86) 
0.474089

>  <MACCS_SelA>  (86) 
-0.169949

>  <MACCS_SelD>  (86) 
0.25772

>  <MACCSAvgABSel>  (86) 
0.15207

>  <Pharm2D_FP>  (86) 
[0. 0. 0. ... 0. 0. 0.]

>  <Pharm2D_pki_G>  (86) 
6.040608

>  <Pharm2D_pki_D>  (86) 
5.536685

>  <Pharm2D_pki_B>  (86) 
5.415008

>  <Pharm2D_pki_A>  (86) 
5.063722

>  <Pharm2D_SelB>  (86) 
0.6256

>  <Pharm2D_SelA>  (86) 
0.976886

>  <Pharm2D_SelD>  (86) 
0.503923

>  <Pharm2DAvgABSel>  (86) 
0.801243

>  <QED>  (86) 
0.629314

$$$$
DB02041
     RDKit          2D

 13 14  0  0  0  0  0  0  0  0999 V2000
    0.0000   -1.6500    0.0000 N   0  0  0  0  0  0  0  0  0  0  0  0
    0.7145   -1.2375    0.0000 C   0  0  0  0  0  0  0  0  0  0  0  0
    0.7145   -0.4125    0.0000 C   0  0  0  0  0  0  0  0  0  0  0  0
    1.4289    0.0000    0.0000 C   0  0  0  0  0  0  0  0  0  0  0  0
    2.1434   -0.4125    0.0000 C   0  0  0  0  0  0  0  0  0  0  0  0
    2.8579    0.0000    0.0000 C   0  0  0  0  0  0  0  0  0  0  0  0
    2.8579    0.8250    0.0000 O   0  0  0  0  0  0  0  0  0  0  0  0
    3.5724   -0.4125    0.0000 N   0  0  0  0  0  0  0  0  0  0  0  0
    3.5724   -1.2375    0.0000 N   0  0  0  0  0  0  0  0  0  0  0  0
    2.8579   -1.6500    0.0000 C   0  0  0  0  0  0  0  0  0  0  0  0
    2.8579   -2.4750    0.0000 O   0  0  0  0  0  0  0  0  0  0  0  0
    2.1434   -1.2375    0.0000 C   0  0  0  0  0  0  0  0  0  0  0  0
    1.4289   -1.6500    0.0000 C   0  0  0  0  0  0  0  0  0  0  0  0
  1  2  1  0
  2  3  2  0
  3  4  1  0
  4  5  2  0
  5  6  1  0
  6  7  2  0
  6  8  1  0
  8  9  1  0
  9 10  1  0
 10 11  2  0
 10 12  1  0
  5 12  1  0
 12 13  2  0
  2 13  1  0
M  END
>  <ALOGPS_LOGP>  (87) 
-0.39

>  <ALOGPS_LOGS>  (87) 
-1.86

>  <ALOGPS_SOLUBILITY>  (87) 
2.43e+00 g/l

>  <DATABASE_NAME>  (87) 
drugbank

>  <DRUGBANK_ID>  (87) 
DB02041

>  <DRUG_GROUPS>  (87) 
experimental

>  <EXACT_MASS>  (87) 
177.053826483

>  <FORMULA>  (87) 
C8H7N3O2

>  <GENERIC_NAME>  (87) 
Isoluminol

>  <ID>  (87) 


>  <INCHI_IDENTIFIER>  (87) 
InChI=1S/C8H7N3O2/c9-4-1-2-5-6(3-4)8(13)11-10-7(5)12/h1-3H,9H2,(H,10,12)(H,11,13)

>  <INCHI_KEY>  (87) 
HUDPLKWXRLNSPC-UHFFFAOYSA-N

>  <INTERNATIONAL_BRANDS>  (87) 
nan

>  <JCHEM_ACCEPTOR_COUNT>  (87) 
3

>  <JCHEM_ATOM_COUNT>  (87) 
nan

>  <JCHEM_AVERAGE_POLARIZABILITY>  (87) 
16.457059208028745

>  <JCHEM_BIOAVAILABILITY>  (87) 
1

>  <JCHEM_DONOR_COUNT>  (87) 
3

>  <JCHEM_FORMAL_CHARGE>  (87) 
0

>  <JCHEM_GHOSE_FILTER>  (87) 
0

>  <JCHEM_IUPAC>  (87) 
6-amino-1,2,3,4-tetrahydrophthalazine-1,4-dione

>  <JCHEM_LOGP>  (87) 
-0.7135605899999999

>  <JCHEM_MDDR_LIKE_RULE>  (87) 
0

>  <JCHEM_NUMBER_OF_RINGS>  (87) 
2

>  <JCHEM_PHYSIOLOGICAL_CHARGE>  (87) 
0

>  <JCHEM_PKA>  (87) 
16.959844190912985

>  <JCHEM_PKA_STRONGEST_ACIDIC>  (87) 
13.748107382172016

>  <JCHEM_PKA_STRONGEST_BASIC>  (87) 
2.152641460607695

>  <JCHEM_POLAR_SURFACE_AREA>  (87) 
84.22

>  <JCHEM_REFRACTIVITY>  (87) 
47.315200000000004

>  <JCHEM_ROTATABLE_BOND_COUNT>  (87) 
0

>  <JCHEM_RULE_OF_FIVE>  (87) 
1

>  <JCHEM_TRADITIONAL_IUPAC>  (87) 
4-aminophthalhydrazide

>  <JCHEM_VEBER_RULE>  (87) 
0

>  <MOLECULAR_WEIGHT>  (87) 
177.1601

>  <PRODUCTS>  (87) 
nan

>  <SALTS>  (87) 
nan

>  <SECONDARY_ACCESSION_NUMBERS>  (87) 
EXPT00549

>  <SMILES>  (87) 
NC1=CC=C2C(=O)NNC(=O)C2=C1

>  <SYNONYMS>  (87) 
4-aminophthalhydrazide

>  <ECFP_FP>  (87) 
<rdkit.DataStructs.cDataStructs.ExplicitBitVect object at 0xa266ecf80>

>  <pki_G>  (87) 
5.79117

>  <pki_D>  (87) 
5.650999

>  <pki_B>  (87) 
5.276757

>  <pki_A>  (87) 
4.819843

>  <SelB>  (87) 
0.514413

>  <SelA>  (87) 
0.971327

>  <SelD>  (87) 
0.140171

>  <AvgABSel>  (87) 
0.74287

>  <MACCS_FP>  (87) 
[0. 0. 0. 0. 0. 0. 0. 0. 0. 0. 0. 0. 0. 0. 0. 0. 0. 0. 0. 0. 0. 0. 0. 0.
 0. 0. 0. 0. 0. 0. 0. 0. 0. 0. 0. 0. 0. 0. 0. 0. 0. 0. 0. 0. 0. 0. 0. 0.
 0. 0. 0. 0. 1. 0. 0. 0. 0. 0. 0. 0. 0. 0. 0. 0. 0. 1. 0. 0. 1. 1. 0. 0.
 0. 0. 0. 0. 0. 0. 0. 0. 0. 0. 0. 0. 1. 0. 0. 0. 0. 0. 0. 0. 1. 0. 1. 1.
 0. 0. 1. 0. 0. 1. 0. 0. 0. 1. 0. 0. 0. 0. 1. 0. 0. 1. 0. 0. 0. 1. 0. 0.
 1. 1. 0. 0. 1. 1. 0. 1. 0. 0. 0. 1. 0. 1. 0. 1. 1. 1. 0. 0. 0. 0. 1. 1.
 0. 1. 0. 0. 0. 0. 0. 1. 0. 0. 1. 0. 1. 0. 1. 1. 0. 1. 1. 1. 1. 1. 0.]

>  <MACCS_pki_G>  (87) 
6.051639

>  <MACCS_pki_D>  (87) 
5.544895

>  <MACCS_pki_B>  (87) 
5.489122

>  <MACCS_pki_A>  (87) 
5.220627

>  <MACCS_SelB>  (87) 
0.562517

>  <MACCS_SelA>  (87) 
0.831012

>  <MACCS_SelD>  (87) 
0.506744

>  <MACCSAvgABSel>  (87) 
0.696765

>  <Pharm2D_FP>  (87) 
[0. 0. 0. ... 0. 0. 0.]

>  <Pharm2D_pki_G>  (87) 
5.825474

>  <Pharm2D_pki_D>  (87) 
5.652801

>  <Pharm2D_pki_B>  (87) 
5.473778

>  <Pharm2D_pki_A>  (87) 
4.987663

>  <Pharm2D_SelB>  (87) 
0.351696

>  <Pharm2D_SelA>  (87) 
0.837811

>  <Pharm2D_SelD>  (87) 
0.172672

>  <Pharm2DAvgABSel>  (87) 
0.594753

>  <QED>  (87) 
0.486341

$$$$
DB00938
     RDKit          2D

 30 31  0  0  1  0  0  0  0  0999 V2000
    7.8089    1.9842    0.0000 O   0  0  0  0  0  0  0  0  0  0  0  0
    3.5220   -2.9659    0.0000 O   0  0  0  0  0  0  0  0  0  0  0  0
    4.2365   -6.6785    0.0000 O   0  0  0  0  0  0  0  0  0  0  0  0
    2.0930   -5.4410    0.0000 O   0  0  0  0  0  0  0  0  0  0  0  0
    4.9509   -2.1409    0.0000 N   0  0  0  0  0  0  0  0  0  0  0  0
    6.3799   -0.4909    0.0000 C   0  0  0  0  0  0  0  0  0  0  0  0
    6.3799    0.3341    0.0000 C   0  0  0  0  0  0  0  0  0  0  0  0
    5.6655   -0.9034    0.0000 C   0  0  0  0  0  0  0  0  0  0  0  0
    7.0944    0.7466    0.0000 C   0  0  0  0  0  0  0  0  0  0  0  0
    5.6655   -1.7284    0.0000 C   0  0  0  0  0  0  0  0  0  0  0  0
    4.9509   -2.9659    0.0000 C   0  0  0  0  0  0  0  0  0  0  0  0
    7.0944    1.5717    0.0000 C   0  0  0  0  0  0  0  0  0  0  0  0
    4.2365   -3.3784    0.0000 C   0  0  0  0  0  0  0  0  0  0  0  0
    8.5234    3.2217    0.0000 C   0  0  0  0  0  0  0  0  0  0  0  0
    8.5234    4.0467    0.0000 C   0  0  0  0  0  0  0  0  0  0  0  0
    7.8089    2.8092    0.0000 C   0  0  0  0  0  0  0  0  0  0  0  0
    4.2365   -4.2035    0.0000 C   0  0  0  0  0  0  0  0  0  0  0  0
    9.2379    4.4592    0.0000 C   0  0  0  0  0  0  0  0  0  0  0  0
    3.5220   -4.6160    0.0000 C   0  0  0  0  0  0  0  0  0  0  0  0
    9.2379    5.2842    0.0000 C   0  0  0  0  0  0  0  0  0  0  0  0
    4.9509   -4.6160    0.0000 C   0  0  0  0  0  0  0  0  0  0  0  0
    3.5220   -5.4410    0.0000 C   0  0  0  0  0  0  0  0  0  0  0  0
    4.9509   -5.4410    0.0000 C   0  0  0  0  0  0  0  0  0  0  0  0
    4.2365   -5.8535    0.0000 C   0  0  0  0  0  0  0  0  0  0  0  0
    8.5234    5.6968    0.0000 C   0  0  0  0  0  0  0  0  0  0  0  0
    9.9524    5.6968    0.0000 C   0  0  0  0  0  0  0  0  0  0  0  0
    2.8075   -5.8535    0.0000 C   0  0  0  0  0  0  0  0  0  0  0  0
    8.5234    6.5218    0.0000 C   0  0  0  0  0  0  0  0  0  0  0  0
    9.9524    6.5218    0.0000 C   0  0  0  0  0  0  0  0  0  0  0  0
    9.2379    6.9343    0.0000 C   0  0  0  0  0  0  0  0  0  0  0  0
  1 12  1  0
  1 16  1  0
  2 13  1  0
  3 24  1  0
  4 27  1  0
  5 10  1  0
  5 11  1  0
  6  7  1  0
  6  8  1  0
  7  9  1  0
  8 10  1  0
  9 12  1  0
 11 13  1  0
 13 17  1  0
 14 15  1  0
 14 16  1  0
 15 18  1  0
 17 19  2  0
 17 21  1  0
 18 20  1  0
 19 22  1  0
 20 25  2  0
 20 26  1  0
 21 23  2  0
 22 24  2  0
 22 27  1  0
 23 24  1  0
 25 28  1  0
 26 29  2  0
 28 30  2  0
 29 30  1  0
M  END
>  <ALOGPS_LOGP>  (88) 
3.82

>  <ALOGPS_LOGS>  (88) 
-5.26

>  <ALOGPS_SOLUBILITY>  (88) 
2.26e-03 g/l

>  <DATABASE_NAME>  (88) 
drugbank

>  <DRUGBANK_ID>  (88) 
DB00938

>  <DRUG_GROUPS>  (88) 
approved

>  <EXACT_MASS>  (88) 
415.272258677

>  <FORMULA>  (88) 
C25H37NO4

>  <GENERIC_NAME>  (88) 
Salmeterol

>  <ID>  (88) 
938

>  <INCHI_IDENTIFIER>  (88) 
InChI=1S/C25H37NO4/c27-20-23-18-22(13-14-24(23)28)25(29)19-26-15-7-1-2-8-16-30-17-9-6-12-21-10-4-3-5-11-21/h3-5,10-11,13-14,18,25-29H,1-2,6-9,12,15-17,19-20H2

>  <INCHI_KEY>  (88) 
GIIZNNXWQWCKIB-UHFFFAOYSA-N

>  <INTERNATIONAL_BRANDS>  (88) 
Aeromax Diskus; Arial; Salmetedur

>  <JCHEM_ACCEPTOR_COUNT>  (88) 
5

>  <JCHEM_ATOM_COUNT>  (88) 
nan

>  <JCHEM_AVERAGE_POLARIZABILITY>  (88) 
50.59519997365934

>  <JCHEM_BIOAVAILABILITY>  (88) 
1

>  <JCHEM_DONOR_COUNT>  (88) 
4

>  <JCHEM_FORMAL_CHARGE>  (88) 
0

>  <JCHEM_GHOSE_FILTER>  (88) 
1

>  <JCHEM_IUPAC>  (88) 
4-(1-hydroxy-2-{[6-(4-phenylbutoxy)hexyl]amino}ethyl)-2-(hydroxymethyl)phenol

>  <JCHEM_LOGP>  (88) 
3.6146962067229897

>  <JCHEM_MDDR_LIKE_RULE>  (88) 
0

>  <JCHEM_NUMBER_OF_RINGS>  (88) 
2

>  <JCHEM_PHYSIOLOGICAL_CHARGE>  (88) 
1

>  <JCHEM_PKA>  (88) 
14.18049423738092

>  <JCHEM_PKA_STRONGEST_ACIDIC>  (88) 
10.116023889198962

>  <JCHEM_PKA_STRONGEST_BASIC>  (88) 
9.404292511622396

>  <JCHEM_POLAR_SURFACE_AREA>  (88) 
81.95

>  <JCHEM_REFRACTIVITY>  (88) 
122.39040000000001

>  <JCHEM_ROTATABLE_BOND_COUNT>  (88) 
16

>  <JCHEM_RULE_OF_FIVE>  (88) 
1

>  <JCHEM_TRADITIONAL_IUPAC>  (88) 
salmeterol

>  <JCHEM_VEBER_RULE>  (88) 
0

>  <MOLECULAR_WEIGHT>  (88) 
415.5656

>  <PRODUCTS>  (88) 
Advair 100 Diskus; Advair 125; Advair 250; Advair 250 Diskus; Advair 500 Diskus; Advair Diskus; Advair HFA; Advairdiskus Diskus; AirDuo RespiClick; Airexar Spiromax; Arbesda Respiclick; Fluticasone Propionate and Salmeterol; Fluticasone Propionate and Salmeterol DISKUS; Serevent; Serevent (25mcg/actuation); Serevent Diskhaler Disk (50mcg/dose); Serevent Diskus; Serevent Diskus (50mcg/dose); Serevent- Aem 25mcg/aem; Serevent-pwr 50mcg/blister Pack; Wixela Inhub

>  <SALTS>  (88) 
Salmeterol xinafoate

>  <SECONDARY_ACCESSION_NUMBERS>  (88) 
APRD00277

>  <SMILES>  (88) 
OCC1=C(O)C=CC(=C1)C(O)CNCCCCCCOCCCCC1=CC=CC=C1

>  <SYNONYMS>  (88) 
Salmaterol; Salmeterol; Salmeterolum

>  <ECFP_FP>  (88) 
<rdkit.DataStructs.cDataStructs.ExplicitBitVect object at 0xa266476c0>

>  <pki_G>  (88) 
5.790794

>  <pki_D>  (88) 
5.693839

>  <pki_B>  (88) 
5.486318

>  <pki_A>  (88) 
5.492491

>  <SelB>  (88) 
0.304477

>  <SelA>  (88) 
0.298304

>  <SelD>  (88) 
0.096955

>  <AvgABSel>  (88) 
0.30139

>  <MACCS_FP>  (88) 
[0. 0. 0. 0. 0. 0. 0. 0. 0. 0. 0. 0. 0. 0. 0. 0. 0. 0. 0. 0. 0. 0. 0. 0.
 0. 0. 0. 0. 0. 0. 0. 0. 0. 0. 0. 0. 0. 0. 0. 0. 0. 0. 0. 0. 0. 0. 0. 0.
 0. 0. 0. 0. 0. 1. 1. 0. 0. 0. 0. 0. 0. 0. 0. 0. 0. 0. 0. 0. 0. 0. 0. 0.
 0. 0. 0. 0. 0. 0. 0. 0. 0. 0. 1. 0. 0. 0. 1. 0. 0. 1. 1. 1. 0. 0. 0. 1.
 0. 0. 0. 0. 1. 0. 0. 0. 1. 0. 0. 0. 0. 1. 0. 1. 0. 1. 0. 0. 0. 0. 1. 0.
 0. 0. 0. 0. 0. 1. 1. 1. 1. 1. 0. 1. 1. 0. 0. 0. 0. 0. 1. 1. 1. 0. 0. 1.
 1. 1. 1. 1. 0. 0. 1. 1. 1. 1. 0. 1. 0. 1. 1. 1. 0. 1. 1. 1. 1. 1. 0.]

>  <MACCS_pki_G>  (88) 
6.075949

>  <MACCS_pki_D>  (88) 
5.792229

>  <MACCS_pki_B>  (88) 
5.958439

>  <MACCS_pki_A>  (88) 
6.136

>  <MACCS_SelB>  (88) 
0.11751

>  <MACCS_SelA>  (88) 
-0.060051

>  <MACCS_SelD>  (88) 
0.28372

>  <MACCSAvgABSel>  (88) 
0.028729

>  <Pharm2D_FP>  (88) 
[0. 0. 0. ... 0. 0. 0.]

>  <Pharm2D_pki_G>  (88) 
6.172591

>  <Pharm2D_pki_D>  (88) 
5.555173

>  <Pharm2D_pki_B>  (88) 
5.372767

>  <Pharm2D_pki_A>  (88) 
5.352621

>  <Pharm2D_SelB>  (88) 
0.799824

>  <Pharm2D_SelA>  (88) 
0.81997

>  <Pharm2D_SelD>  (88) 
0.617419

>  <Pharm2DAvgABSel>  (88) 
0.809897

>  <QED>  (88) 
0.31032

$$$$
DB12313
     RDKit          2D

 26 27  0  0  0  0  0  0  0  0999 V2000
    2.8579    2.4750    0.0000 C   0  0  0  0  0  0  0  0  0  0  0  0
    2.1434    2.0625    0.0000 C   0  0  0  0  0  0  0  0  0  0  0  0
    8.5737    3.3000    0.0000 C   0  0  0  0  0  0  0  0  0  0  0  0
    7.8592    3.7125    0.0000 C   0  0  0  0  0  0  0  0  0  0  0  0
    8.5737    2.4750    0.0000 C   0  0  0  0  0  0  0  0  0  0  0  0
    3.5724    2.0625    0.0000 C   0  0  0  0  0  0  0  0  0  0  0  0
    1.4289    2.4750    0.0000 C   0  0  0  0  0  0  0  0  0  0  0  0
    7.1447    3.3000    0.0000 C   0  0  0  0  0  0  0  0  0  0  0  0
    7.8592    2.0625    0.0000 C   0  0  0  0  0  0  0  0  0  0  0  0
   -2.8579    2.4750    0.0000 C   0  0  0  0  0  0  0  0  0  0  0  0
   -3.5724    2.0625    0.0000 C   0  0  0  0  0  0  0  0  0  0  0  0
    6.4302    2.0625    0.0000 C   0  0  0  0  0  0  0  0  0  0  0  0
   -1.4289    2.4750    0.0000 C   0  0  0  0  0  0  0  0  0  0  0  0
    4.2868    2.4750    0.0000 C   0  0  0  0  0  0  0  0  0  0  0  0
    0.7145    2.0625    0.0000 C   0  0  0  0  0  0  0  0  0  0  0  0
    5.7158    2.4750    0.0000 C   0  0  0  0  0  0  0  0  0  0  0  0
   -0.7145    2.0625    0.0000 C   0  0  0  0  0  0  0  0  0  0  0  0
   -2.1434    1.2375    0.0000 C   0  0  0  0  0  0  0  0  0  0  0  0
    7.1447    2.4750    0.0000 C   0  0  0  0  0  0  0  0  0  0  0  0
   -2.1434    2.0625    0.0000 C   0  0  0  0  0  0  0  0  0  0  0  0
   -3.5724    1.2375    0.0000 C   0  0  0  0  0  0  0  0  0  0  0  0
   -2.8579    0.8250    0.0000 C   0  0  0  0  0  0  0  0  0  0  0  0
    5.0013    2.0625    0.0000 N   0  0  0  0  0  0  0  0  0  0  0  0
    0.0000    2.4750    0.0000 N   0  0  0  0  0  0  0  0  0  0  0  0
   -4.2868    0.8250    0.0000 O   0  0  0  0  0  0  0  0  0  0  0  0
   -2.8579    0.0000    0.0000 O   0  0  0  0  0  0  0  0  0  0  0  0
  2  1  1  0
  4  3  2  0
  5  3  1  0
  6  1  1  0
  7  2  1  0
  8  4  1  0
  9  5  2  0
 11 10  2  0
 14  6  1  0
 15  7  1  0
 16 12  1  0
 17 13  1  0
 19  8  2  0
 19  9  1  0
 19 12  1  0
 20 10  1  0
 20 13  1  0
 20 18  2  0
 21 11  1  0
 22 18  1  0
 22 21  2  0
 23 14  1  0
 23 16  1  0
 24 15  1  0
 24 17  1  0
 25 21  1  0
 26 22  1  0
M  END
>  <ALOGPS_LOGP>  (89) 
3.75

>  <ALOGPS_LOGS>  (89) 
-5.17

>  <ALOGPS_SOLUBILITY>  (89) 
2.43e-03 g/l

>  <DATABASE_NAME>  (89) 
drugbank

>  <DRUGBANK_ID>  (89) 
DB12313

>  <DRUG_GROUPS>  (89) 
approved; investigational

>  <EXACT_MASS>  (89) 
356.246378278

>  <FORMULA>  (89) 
C22H32N2O2

>  <GENERIC_NAME>  (89) 
Dopexamine

>  <ID>  (89) 


>  <INCHI_IDENTIFIER>  (89) 
InChI=1S/C22H32N2O2/c25-21-11-10-20(18-22(21)26)13-17-24-15-7-2-1-6-14-23-16-12-19-8-4-3-5-9-19/h3-5,8-11,18,23-26H,1-2,6-7,12-17H2

>  <INCHI_KEY>  (89) 
RYBJORHCUPVNMB-UHFFFAOYSA-N

>  <INTERNATIONAL_BRANDS>  (89) 
nan

>  <JCHEM_ACCEPTOR_COUNT>  (89) 
4

>  <JCHEM_ATOM_COUNT>  (89) 
nan

>  <JCHEM_AVERAGE_POLARIZABILITY>  (89) 
43.77462625026226

>  <JCHEM_BIOAVAILABILITY>  (89) 
1

>  <JCHEM_DONOR_COUNT>  (89) 
4

>  <JCHEM_FORMAL_CHARGE>  (89) 
0

>  <JCHEM_GHOSE_FILTER>  (89) 
1

>  <JCHEM_IUPAC>  (89) 
4-[2-({6-[(2-phenylethyl)amino]hexyl}amino)ethyl]benzene-1,2-diol

>  <JCHEM_LOGP>  (89) 
2.9773050466833855

>  <JCHEM_MDDR_LIKE_RULE>  (89) 
0

>  <JCHEM_NUMBER_OF_RINGS>  (89) 
2

>  <JCHEM_PHYSIOLOGICAL_CHARGE>  (89) 
2

>  <JCHEM_PKA>  (89) 
12.926930678089843

>  <JCHEM_PKA_STRONGEST_ACIDIC>  (89) 
10.712907327215207

>  <JCHEM_PKA_STRONGEST_BASIC>  (89) 
10.140823013239853

>  <JCHEM_POLAR_SURFACE_AREA>  (89) 
64.52

>  <JCHEM_REFRACTIVITY>  (89) 
108.82679999999998

>  <JCHEM_ROTATABLE_BOND_COUNT>  (89) 
13

>  <JCHEM_RULE_OF_FIVE>  (89) 
1

>  <JCHEM_TRADITIONAL_IUPAC>  (89) 
dopexamine

>  <JCHEM_VEBER_RULE>  (89) 
0

>  <MOLECULAR_WEIGHT>  (89) 
356.5017

>  <PRODUCTS>  (89) 
nan

>  <SALTS>  (89) 
Dopexamine Hydrochloride

>  <SECONDARY_ACCESSION_NUMBERS>  (89) 
nan

>  <SMILES>  (89) 
OC1=C(O)C=C(CCNCCCCCCNCCC2=CC=CC=C2)C=C1

>  <SYNONYMS>  (89) 
nan

>  <ECFP_FP>  (89) 
<rdkit.DataStructs.cDataStructs.ExplicitBitVect object at 0xa26c21e90>

>  <pki_G>  (89) 
5.78989

>  <pki_D>  (89) 
5.78774

>  <pki_B>  (89) 
5.484817

>  <pki_A>  (89) 
5.726572

>  <SelB>  (89) 
0.305073

>  <SelA>  (89) 
0.063317

>  <SelD>  (89) 
0.00215

>  <AvgABSel>  (89) 
0.184195

>  <MACCS_FP>  (89) 
[0. 0. 0. 0. 0. 0. 0. 0. 0. 0. 0. 0. 0. 0. 0. 0. 0. 0. 0. 0. 0. 0. 0. 0.
 0. 0. 0. 0. 0. 0. 0. 0. 0. 0. 0. 0. 0. 0. 0. 0. 0. 0. 0. 0. 0. 0. 0. 0.
 0. 0. 0. 0. 0. 0. 1. 0. 0. 0. 0. 0. 0. 0. 0. 0. 0. 0. 0. 0. 0. 0. 0. 0.
 1. 0. 0. 0. 0. 0. 0. 0. 0. 0. 1. 0. 0. 0. 1. 0. 0. 0. 1. 1. 0. 0. 0. 0.
 0. 0. 0. 0. 1. 0. 0. 0. 1. 0. 0. 0. 0. 0. 0. 1. 0. 1. 0. 0. 0. 0. 1. 0.
 0. 0. 0. 0. 0. 1. 0. 1. 1. 1. 0. 1. 0. 0. 0. 0. 0. 0. 1. 1. 0. 0. 1. 1.
 1. 1. 0. 1. 0. 0. 1. 1. 1. 1. 0. 1. 0. 1. 1. 1. 0. 1. 1. 1. 1. 1. 0.]

>  <MACCS_pki_G>  (89) 
5.781838

>  <MACCS_pki_D>  (89) 
5.847569

>  <MACCS_pki_B>  (89) 
5.785106

>  <MACCS_pki_A>  (89) 
6.041834

>  <MACCS_SelB>  (89) 
-0.003269

>  <MACCS_SelA>  (89) 
-0.259996

>  <MACCS_SelD>  (89) 
-0.065731

>  <MACCSAvgABSel>  (89) 
-0.131632

>  <Pharm2D_FP>  (89) 
[0. 0. 0. ... 0. 0. 0.]

>  <Pharm2D_pki_G>  (89) 
6.35851

>  <Pharm2D_pki_D>  (89) 
5.640541

>  <Pharm2D_pki_B>  (89) 
5.769369

>  <Pharm2D_pki_A>  (89) 
5.072275

>  <Pharm2D_SelB>  (89) 
0.589141

>  <Pharm2D_SelA>  (89) 
1.286235

>  <Pharm2D_SelD>  (89) 
0.717969

>  <Pharm2DAvgABSel>  (89) 
0.937688

>  <QED>  (89) 
0.326905

$$$$
DB03288
     RDKit          2D

 25 27  0  0  0  0  0  0  0  0999 V2000
   -3.6758    1.5608    0.0000 C   0  0  0  0  0  0  0  0  0  0  0  0
   -3.6758    0.7358    0.0000 C   0  0  0  0  0  0  0  0  0  0  0  0
   -2.8912    1.8158    0.0000 C   0  0  0  0  0  0  0  0  0  0  0  0
   -4.3903    1.9733    0.0000 C   0  0  0  0  0  0  0  0  0  0  0  0
   -2.8912    0.4809    0.0000 N   0  0  0  0  0  0  0  0  0  0  0  0
   -4.3903    0.3233    0.0000 C   0  0  0  0  0  0  0  0  0  0  0  0
   -2.4062    1.1483    0.0000 C   0  0  0  0  0  0  0  0  0  0  0  0
   -5.1047    1.5608    0.0000 C   0  0  0  0  0  0  0  0  0  0  0  0
   -5.1047    0.7358    0.0000 C   0  0  0  0  0  0  0  0  0  0  0  0
   -1.5812    1.1483    0.0000 C   0  0  0  0  0  0  0  0  0  0  0  0
   -5.8192    1.9733    0.0000 Cl  0  0  0  0  0  0  0  0  0  0  0  0
   -1.1687    0.4338    0.0000 N   0  0  0  0  0  0  0  0  0  0  0  0
   -1.1687    1.8628    0.0000 O   0  0  0  0  0  0  0  0  0  0  0  0
   -0.3437    0.4338    0.0000 C   0  0  0  0  0  0  0  0  0  0  0  0
    0.0688   -0.2806    0.0000 C   0  0  0  0  0  0  0  0  0  0  0  0
    0.8938   -0.2806    0.0000 N   0  0  0  0  0  0  0  0  0  0  0  0
   -0.3437   -0.9951    0.0000 O   0  0  0  0  0  0  0  0  0  0  0  0
    1.3063   -0.9951    0.0000 C   0  0  0  0  0  0  0  0  0  0  0  0
    1.3063    0.4338    0.0000 C   0  0  0  0  0  0  0  0  0  0  0  0
    2.1267   -1.0813    0.0000 C   0  0  0  0  0  0  0  0  0  0  0  0
    0.9707   -1.7488    0.0000 C   0  0  0  0  0  0  0  0  0  0  0  0
    0.8938    1.1483    0.0000 C   0  0  0  0  0  0  0  0  0  0  0  0
    2.2983   -1.8883    0.0000 C   0  0  0  0  0  0  0  0  0  0  0  0
    1.5838   -2.3008    0.0000 C   0  0  0  0  0  0  0  0  0  0  0  0
    1.3063    1.8628    0.0000 O   0  0  0  0  0  0  0  0  0  0  0  0
  1  2  2  0
  1  3  1  0
  1  4  1  0
  2  5  1  0
  2  6  1  0
  3  7  2  0
  4  8  2  0
  5  7  1  0
  6  9  2  0
  7 10  1  0
  8  9  1  0
  8 11  1  0
 10 12  1  0
 10 13  2  0
 12 14  1  0
 14 15  1  0
 15 16  1  0
 15 17  1  6
 16 18  1  0
 16 19  1  0
 18 20  1  0
 18 21  1  0
 19 22  1  0
 20 23  1  0
 21 24  1  0
 22 25  1  0
 23 24  1  0
M  END
>  <ALOGPS_LOGP>  (90) 
2.24

>  <ALOGPS_LOGS>  (90) 
-3.11

>  <ALOGPS_SOLUBILITY>  (90) 
2.87e-01 g/l

>  <DATABASE_NAME>  (90) 
drugbank

>  <DRUGBANK_ID>  (90) 
DB03288

>  <DRUG_GROUPS>  (90) 
experimental

>  <EXACT_MASS>  (90) 
365.150619356

>  <FORMULA>  (90) 
C18H24ClN3O3

>  <GENERIC_NAME>  (90) 
5-Chloro-1h-Indole-2-Carboxylic Acid{[Cyclopentyl-(2-Hydroxy-Ethyl)-Carbamoyl]-Methyl}-Amide

>  <ID>  (90) 
288

>  <INCHI_IDENTIFIER>  (90) 
InChI=1S/C18H24ClN3O3/c19-13-5-6-15-12(9-13)10-16(21-15)18(25)20-11-17(24)22(7-8-23)14-3-1-2-4-14/h5-6,9-10,14,17,21,23-24H,1-4,7-8,11H2,(H,20,25)/t17-/m1/s1

>  <INCHI_KEY>  (90) 
VXABTOCIIZSEPD-QGZVFWFLSA-N

>  <INTERNATIONAL_BRANDS>  (90) 
nan

>  <JCHEM_ACCEPTOR_COUNT>  (90) 
4

>  <JCHEM_ATOM_COUNT>  (90) 
nan

>  <JCHEM_AVERAGE_POLARIZABILITY>  (90) 
39.388857139000855

>  <JCHEM_BIOAVAILABILITY>  (90) 
1

>  <JCHEM_DONOR_COUNT>  (90) 
4

>  <JCHEM_FORMAL_CHARGE>  (90) 
0

>  <JCHEM_GHOSE_FILTER>  (90) 
1

>  <JCHEM_IUPAC>  (90) 
5-chloro-N-[(2R)-2-[cyclopentyl(2-hydroxyethyl)amino]-2-hydroxyethyl]-1H-indole-2-carboxamide

>  <JCHEM_LOGP>  (90) 
1.9893904043333328

>  <JCHEM_MDDR_LIKE_RULE>  (90) 
1

>  <JCHEM_NUMBER_OF_RINGS>  (90) 
3

>  <JCHEM_PHYSIOLOGICAL_CHARGE>  (90) 
1

>  <JCHEM_PKA>  (90) 
13.23392912870365

>  <JCHEM_PKA_STRONGEST_ACIDIC>  (90) 
12.205110012770769

>  <JCHEM_PKA_STRONGEST_BASIC>  (90) 
7.754956657740764

>  <JCHEM_POLAR_SURFACE_AREA>  (90) 
88.59

>  <JCHEM_REFRACTIVITY>  (90) 
97.55639999999998

>  <JCHEM_ROTATABLE_BOND_COUNT>  (90) 
7

>  <JCHEM_RULE_OF_FIVE>  (90) 
1

>  <JCHEM_TRADITIONAL_IUPAC>  (90) 
5-chloro-N-[(2R)-2-[cyclopentyl(2-hydroxyethyl)amino]-2-hydroxyethyl]-1H-indole-2-carboxamide

>  <JCHEM_VEBER_RULE>  (90) 
0

>  <MOLECULAR_WEIGHT>  (90) 
365.854

>  <PRODUCTS>  (90) 
nan

>  <SALTS>  (90) 
nan

>  <SECONDARY_ACCESSION_NUMBERS>  (90) 
EXPT00098

>  <SMILES>  (90) 
[H][C@@](O)(CNC(=O)C1=CC2=CC(Cl)=CC=C2N1)N(CCO)C1CCCC1

>  <SYNONYMS>  (90) 
nan

>  <ECFP_FP>  (90) 
<rdkit.DataStructs.cDataStructs.ExplicitBitVect object at 0xa267bf850>

>  <pki_G>  (90) 
5.78759

>  <pki_D>  (90) 
5.748954

>  <pki_B>  (90) 
5.648783

>  <pki_A>  (90) 
5.685508

>  <SelB>  (90) 
0.138807

>  <SelA>  (90) 
0.102082

>  <SelD>  (90) 
0.038636

>  <AvgABSel>  (90) 
0.120445

>  <MACCS_FP>  (90) 
[0. 0. 0. 0. 0. 0. 0. 0. 0. 0. 0. 0. 0. 0. 0. 0. 0. 0. 0. 0. 0. 0. 0. 0.
 0. 0. 0. 0. 0. 0. 0. 0. 0. 0. 0. 0. 0. 0. 0. 0. 0. 0. 0. 0. 0. 0. 0. 0.
 0. 0. 0. 0. 0. 0. 1. 0. 0. 0. 0. 0. 0. 0. 0. 0. 0. 1. 0. 0. 0. 0. 0. 0.
 0. 0. 0. 0. 0. 0. 0. 1. 0. 0. 1. 1. 0. 1. 0. 1. 0. 0. 1. 1. 1. 0. 0. 1.
 1. 0. 0. 0. 1. 1. 0. 1. 1. 1. 0. 1. 0. 1. 1. 1. 0. 0. 0. 0. 0. 1. 1. 0.
 0. 1. 1. 0. 0. 1. 0. 0. 1. 1. 0. 1. 1. 1. 1. 0. 0. 1. 1. 1. 0. 0. 1. 0.
 0. 0. 1. 1. 1. 0. 0. 1. 0. 1. 1. 1. 1. 1. 1. 1. 0. 1. 1. 1. 1. 1. 0.]

>  <MACCS_pki_G>  (90) 
5.816357

>  <MACCS_pki_D>  (90) 
5.775126

>  <MACCS_pki_B>  (90) 
5.54892

>  <MACCS_pki_A>  (90) 
5.31559

>  <MACCS_SelB>  (90) 
0.267437

>  <MACCS_SelA>  (90) 
0.500767

>  <MACCS_SelD>  (90) 
0.041232

>  <MACCSAvgABSel>  (90) 
0.384102

>  <Pharm2D_FP>  (90) 
[0. 0. 0. ... 0. 0. 0.]

>  <Pharm2D_pki_G>  (90) 
6.15059

>  <Pharm2D_pki_D>  (90) 
5.586671

>  <Pharm2D_pki_B>  (90) 
5.443394

>  <Pharm2D_pki_A>  (90) 
5.360913

>  <Pharm2D_SelB>  (90) 
0.707195

>  <Pharm2D_SelA>  (90) 
0.789677

>  <Pharm2D_SelD>  (90) 
0.563918

>  <Pharm2DAvgABSel>  (90) 
0.748436

>  <QED>  (90) 
0.565721

$$$$
DB09084
     RDKit          2D

 23 25  0  0  0  0  0  0  0  0999 V2000
    4.2584    1.1193    0.0000 C   0  0  0  0  0  0  0  0  0  0  0  0
    4.9728    1.5318    0.0000 N   0  0  0  0  0  0  0  0  0  0  0  0
    4.9728    2.3568    0.0000 C   0  0  0  0  0  0  0  0  0  0  0  0
    5.6873    1.1193    0.0000 C   0  0  0  0  0  0  0  0  0  0  0  0
    6.4018    1.5318    0.0000 C   0  0  0  0  0  0  0  0  0  0  0  0
    7.1162    1.1193    0.0000 C   0  0  0  0  0  0  0  0  0  0  0  0
    7.8307    1.5318    0.0000 O   0  0  0  0  0  0  0  0  0  0  0  0
    8.5452    1.1193    0.0000 C   0  0  0  0  0  0  0  0  0  0  0  0
    9.2989    1.4548    0.0000 N   0  0  0  0  0  0  0  0  0  0  0  0
    9.8509    0.8418    0.0000 N   0  0  0  0  0  0  0  0  0  0  0  0
   10.6714    0.9280    0.0000 C   0  0  0  0  0  0  0  0  0  0  0  0
   11.1563    0.2606    0.0000 C   0  0  0  0  0  0  0  0  0  0  0  0
   11.9768    0.3468    0.0000 C   0  0  0  0  0  0  0  0  0  0  0  0
   12.4617   -0.3207    0.0000 C   0  0  0  0  0  0  0  0  0  0  0  0
   12.1261   -1.0743    0.0000 C   0  0  0  0  0  0  0  0  0  0  0  0
   11.3057   -1.1606    0.0000 C   0  0  0  0  0  0  0  0  0  0  0  0
   10.8207   -0.4931    0.0000 C   0  0  0  0  0  0  0  0  0  0  0  0
    9.4384    0.1273    0.0000 C   0  0  0  0  0  0  0  0  0  0  0  0
    9.6933   -0.6573    0.0000 C   0  0  0  0  0  0  0  0  0  0  0  0
    9.1413   -1.2704    0.0000 C   0  0  0  0  0  0  0  0  0  0  0  0
    8.3343   -1.0989    0.0000 C   0  0  0  0  0  0  0  0  0  0  0  0
    8.0794   -0.3143    0.0000 C   0  0  0  0  0  0  0  0  0  0  0  0
    8.6314    0.2988    0.0000 C   0  0  0  0  0  0  0  0  0  0  0  0
  1  2  1  0
  2  3  1  0
  2  4  1  0
  4  5  1  0
  5  6  1  0
  6  7  1  0
  7  8  1  0
  8  9  2  0
  9 10  1  0
 10 11  1  0
 11 12  1  0
 12 13  2  0
 13 14  1  0
 14 15  2  0
 15 16  1  0
 16 17  2  0
 12 17  1  0
 10 18  1  0
 18 19  2  0
 19 20  1  0
 20 21  2  0
 21 22  1  0
 22 23  2  0
  8 23  1  0
 18 23  1  0
M  END
>  <ALOGPS_LOGP>  (91) 
3.78

>  <ALOGPS_LOGS>  (91) 
-3.80

>  <ALOGPS_SOLUBILITY>  (91) 
4.91e-02 g/l

>  <DATABASE_NAME>  (91) 
drugbank

>  <DRUGBANK_ID>  (91) 
DB09084

>  <DRUG_GROUPS>  (91) 
approved

>  <EXACT_MASS>  (91) 
309.184112373

>  <FORMULA>  (91) 
C19H23N3O

>  <GENERIC_NAME>  (91) 
Benzydamine

>  <ID>  (91) 


>  <INCHI_IDENTIFIER>  (91) 
InChI=1S/C19H23N3O/c1-21(2)13-8-14-23-19-17-11-6-7-12-18(17)22(20-19)15-16-9-4-3-5-10-16/h3-7,9-12H,8,13-15H2,1-2H3

>  <INCHI_KEY>  (91) 
CNBGNNVCVSKAQZ-UHFFFAOYSA-N

>  <INTERNATIONAL_BRANDS>  (91) 
nan

>  <JCHEM_ACCEPTOR_COUNT>  (91) 
3

>  <JCHEM_ATOM_COUNT>  (91) 
46

>  <JCHEM_AVERAGE_POLARIZABILITY>  (91) 
35.62041708632231

>  <JCHEM_BIOAVAILABILITY>  (91) 
1

>  <JCHEM_DONOR_COUNT>  (91) 
0

>  <JCHEM_FORMAL_CHARGE>  (91) 
0

>  <JCHEM_GHOSE_FILTER>  (91) 
1

>  <JCHEM_IUPAC>  (91) 
{3-[(1-benzyl-1H-indazol-3-yl)oxy]propyl}dimethylamine

>  <JCHEM_LOGP>  (91) 
3.659847397

>  <JCHEM_MDDR_LIKE_RULE>  (91) 
1

>  <JCHEM_NUMBER_OF_RINGS>  (91) 
3

>  <JCHEM_PHYSIOLOGICAL_CHARGE>  (91) 
1

>  <JCHEM_PKA>  (91) 
nan

>  <JCHEM_PKA_STRONGEST_ACIDIC>  (91) 
nan

>  <JCHEM_PKA_STRONGEST_BASIC>  (91) 
9.256663067303403

>  <JCHEM_POLAR_SURFACE_AREA>  (91) 
30.29

>  <JCHEM_REFRACTIVITY>  (91) 
105.56290000000003

>  <JCHEM_ROTATABLE_BOND_COUNT>  (91) 
7

>  <JCHEM_RULE_OF_FIVE>  (91) 
1

>  <JCHEM_TRADITIONAL_IUPAC>  (91) 
tantum

>  <JCHEM_VEBER_RULE>  (91) 
1

>  <MOLECULAR_WEIGHT>  (91) 
309.413

>  <PRODUCTS>  (91) 
Apo-benzydamine Oral Rinse; Novo-benzydamine; Novo-benzydamine - Oral Rinse; Nu-benzydamine Oral Rinse; Odan-benzydamine; PMS-benzydamine; Pharixia; Ratio-benzydamine; Sun-benz - Liq 0.15%; Tantum

>  <SALTS>  (91) 
Benzydamine hydrochloride

>  <SECONDARY_ACCESSION_NUMBERS>  (91) 
nan

>  <SMILES>  (91) 
CN(C)CCCOC1=NN(CC2=CC=CC=C2)C2=CC=CC=C12

>  <SYNONYMS>  (91) 
bencidamina; Benzydamine

>  <ECFP_FP>  (91) 
<rdkit.DataStructs.cDataStructs.ExplicitBitVect object at 0xa26b788f0>

>  <pki_G>  (91) 
5.786736

>  <pki_D>  (91) 
5.73764

>  <pki_B>  (91) 
5.601742

>  <pki_A>  (91) 
5.805278

>  <SelB>  (91) 
0.184994

>  <SelA>  (91) 
-0.018542

>  <SelD>  (91) 
0.049096

>  <AvgABSel>  (91) 
0.083226

>  <MACCS_FP>  (91) 
[0. 0. 0. 0. 0. 0. 0. 0. 0. 0. 0. 0. 0. 0. 0. 0. 0. 0. 0. 0. 0. 0. 0. 0.
 0. 0. 0. 0. 0. 0. 0. 0. 0. 0. 0. 0. 0. 0. 0. 0. 0. 0. 0. 0. 0. 0. 0. 0.
 0. 0. 0. 0. 1. 0. 0. 0. 0. 0. 0. 0. 0. 0. 0. 0. 0. 1. 0. 0. 0. 0. 0. 0.
 0. 0. 1. 1. 0. 0. 0. 0. 1. 0. 0. 1. 0. 1. 1. 0. 0. 0. 0. 0. 1. 1. 1. 1.
 1. 1. 0. 0. 1. 1. 0. 0. 0. 1. 0. 0. 1. 1. 1. 1. 0. 1. 0. 1. 1. 1. 1. 0.
 1. 1. 1. 0. 1. 1. 1. 1. 0. 0. 0. 0. 1. 0. 0. 0. 0. 1. 1. 0. 0. 0. 1. 1.
 0. 1. 0. 1. 1. 1. 0. 0. 0. 1. 0. 1. 1. 1. 1. 0. 1. 1. 1. 1. 1. 1. 0.]

>  <MACCS_pki_G>  (91) 
6.17301

>  <MACCS_pki_D>  (91) 
5.638431

>  <MACCS_pki_B>  (91) 
5.627042

>  <MACCS_pki_A>  (91) 
5.320488

>  <MACCS_SelB>  (91) 
0.545968

>  <MACCS_SelA>  (91) 
0.852522

>  <MACCS_SelD>  (91) 
0.534579

>  <MACCSAvgABSel>  (91) 
0.699245

>  <Pharm2D_FP>  (91) 
[0. 0. 0. ... 0. 0. 0.]

>  <Pharm2D_pki_G>  (91) 
5.758781

>  <Pharm2D_pki_D>  (91) 
5.51587

>  <Pharm2D_pki_B>  (91) 
5.303902

>  <Pharm2D_pki_A>  (91) 
5.269957

>  <Pharm2D_SelB>  (91) 
0.45488

>  <Pharm2D_SelA>  (91) 
0.488824

>  <Pharm2D_SelD>  (91) 
0.242912

>  <Pharm2DAvgABSel>  (91) 
0.471852

>  <QED>  (91) 
0.626556

$$$$
DB00287
     RDKit          2D

 35 36  0  0  1  0  0  0  0  0999 V2000
   10.0142    3.6771    0.0000 F   0  0  0  0  0  0  0  0  0  0  0  0
   11.6642    3.6771    0.0000 F   0  0  0  0  0  0  0  0  0  0  0  0
   10.8392    4.5021    0.0000 F   0  0  0  0  0  0  0  0  0  0  0  0
    7.0839   -4.0348    0.0000 O   0  0  0  0  0  0  0  0  0  0  0  0
    9.4334   -2.3278    0.0000 O   0  0  0  0  0  0  0  0  0  0  0  0
    7.9813    0.3771    0.0000 O   0  0  0  0  0  0  0  0  0  0  0  0
    9.4103    1.2021    0.0000 O   0  0  0  0  0  0  0  0  0  0  0  0
    3.0477    0.3058    0.0000 O   0  0  0  0  0  0  0  0  0  0  0  0
    2.6062   -1.0532    0.0000 O   0  0  0  0  0  0  0  0  0  0  0  0
    7.3139   -2.5828    0.0000 C   0  0  0  0  0  0  0  0  0  0  0  0
    7.9813   -2.0979    0.0000 C   0  0  0  0  0  0  0  0  0  0  0  0
    7.5688   -3.3674    0.0000 C   0  0  0  0  0  0  0  0  0  0  0  0
    8.6488   -2.5828    0.0000 C   0  0  0  0  0  0  0  0  0  0  0  0
    8.3938   -3.3674    0.0000 C   0  0  0  0  0  0  0  0  0  0  0  0
    6.5293   -2.3278    0.0000 C   0  0  0  0  0  0  0  0  0  0  0  0
    7.9813   -1.2729    0.0000 C   0  0  0  0  0  0  0  0  0  0  0  0
    5.9162   -2.8799    0.0000 C   0  0  0  0  0  0  0  0  0  0  0  0
    8.6958   -0.8604    0.0000 C   0  0  0  0  0  0  0  0  0  0  0  0
    8.6958   -0.0354    0.0000 C   0  0  0  0  0  0  0  0  0  0  0  0
    5.1315   -2.6250    0.0000 C   0  0  0  0  0  0  0  0  0  0  0  0
    4.9600   -1.8180    0.0000 C   0  0  0  0  0  0  0  0  0  0  0  0
    9.4103    0.3771    0.0000 C   0  0  0  0  0  0  0  0  0  0  0  0
    4.1754   -1.5631    0.0000 C   0  0  0  0  0  0  0  0  0  0  0  0
    4.0039   -0.7560    0.0000 C   0  0  0  0  0  0  0  0  0  0  0  0
   10.1248    1.6146    0.0000 C   0  0  0  0  0  0  0  0  0  0  0  0
    3.2192   -0.5011    0.0000 C   0  0  0  0  0  0  0  0  0  0  0  0
   10.1248    2.4396    0.0000 C   0  0  0  0  0  0  0  0  0  0  0  0
   10.8392    1.2021    0.0000 C   0  0  0  0  0  0  0  0  0  0  0  0
    2.2631    0.5608    0.0000 C   0  0  0  0  0  0  0  0  0  0  0  0
   10.8392    2.8521    0.0000 C   0  0  0  0  0  0  0  0  0  0  0  0
   11.5538    1.6146    0.0000 C   0  0  0  0  0  0  0  0  0  0  0  0
   11.5538    2.4396    0.0000 C   0  0  0  0  0  0  0  0  0  0  0  0
    1.6500    0.0087    0.0000 C   0  0  0  0  0  0  0  0  0  0  0  0
    2.0916    1.3678    0.0000 C   0  0  0  0  0  0  0  0  0  0  0  0
   10.8392    3.6771    0.0000 C   0  0  0  0  0  0  0  0  0  0  0  0
  1 35  1  0
  2 35  1  0
  3 35  1  0
 12  4  1  6
 13  5  1  6
 19  6  1  1
  7 22  1  0
  7 25  1  0
  8 26  1  0
  8 29  1  0
  9 26  2  0
 10 11  1  0
 10 12  1  0
 10 15  1  6
 11 13  1  0
 11 16  1  1
 12 14  1  0
 13 14  1  0
 15 17  1  0
 16 18  2  0
 17 20  2  0
 18 19  1  0
 19 22  1  0
 20 21  1  0
 21 23  1  0
 23 24  1  0
 24 26  1  0
 25 27  2  0
 25 28  1  0
 27 30  1  0
 28 31  2  0
 29 33  1  0
 29 34  1  0
 30 32  2  0
 30 35  1  0
 31 32  1  0
M  END
>  <ALOGPS_LOGP>  (92) 
4.02

>  <ALOGPS_LOGS>  (92) 
-4.82

>  <ALOGPS_SOLUBILITY>  (92) 
7.59e-03 g/l

>  <DATABASE_NAME>  (92) 
drugbank

>  <DRUGBANK_ID>  (92) 
DB00287

>  <DRUG_GROUPS>  (92) 
approved

>  <EXACT_MASS>  (92) 
500.238573467

>  <FORMULA>  (92) 
C26H35F3O6

>  <GENERIC_NAME>  (92) 
Travoprost

>  <ID>  (92) 
287

>  <INCHI_IDENTIFIER>  (92) 
InChI=1S/C26H35F3O6/c1-17(2)35-25(33)11-6-4-3-5-10-21-22(24(32)15-23(21)31)13-12-19(30)16-34-20-9-7-8-18(14-20)26(27,28)29/h3,5,7-9,12-14,17,19,21-24,30-32H,4,6,10-11,15-16H2,1-2H3/b5-3-,13-12+/t19-,21-,22-,23+,24-/m1/s1

>  <INCHI_KEY>  (92) 
MKPLKVHSHYCHOC-AHTXBMBWSA-N

>  <INTERNATIONAL_BRANDS>  (92) 
Travo-Z

>  <JCHEM_ACCEPTOR_COUNT>  (92) 
5

>  <JCHEM_ATOM_COUNT>  (92) 
nan

>  <JCHEM_AVERAGE_POLARIZABILITY>  (92) 
51.60825437947595

>  <JCHEM_BIOAVAILABILITY>  (92) 
0

>  <JCHEM_DONOR_COUNT>  (92) 
3

>  <JCHEM_FORMAL_CHARGE>  (92) 
0

>  <JCHEM_GHOSE_FILTER>  (92) 
0

>  <JCHEM_IUPAC>  (92) 
propan-2-yl (5Z)-7-[(1R,2R,3R,5S)-3,5-dihydroxy-2-[(1E,3R)-3-hydroxy-4-[3-(trifluoromethyl)phenoxy]but-1-en-1-yl]cyclopentyl]hept-5-enoate

>  <JCHEM_LOGP>  (92) 
3.839193196666667

>  <JCHEM_MDDR_LIKE_RULE>  (92) 
0

>  <JCHEM_NUMBER_OF_RINGS>  (92) 
2

>  <JCHEM_PHYSIOLOGICAL_CHARGE>  (92) 
0

>  <JCHEM_PKA>  (92) 
14.621222898184115

>  <JCHEM_PKA_STRONGEST_ACIDIC>  (92) 
13.948068465994915

>  <JCHEM_PKA_STRONGEST_BASIC>  (92) 
-2.872004062695197

>  <JCHEM_POLAR_SURFACE_AREA>  (92) 
96.22

>  <JCHEM_REFRACTIVITY>  (92) 
127.8575

>  <JCHEM_ROTATABLE_BOND_COUNT>  (92) 
14

>  <JCHEM_RULE_OF_FIVE>  (92) 
0

>  <JCHEM_TRADITIONAL_IUPAC>  (92) 
travoprost

>  <JCHEM_VEBER_RULE>  (92) 
0

>  <MOLECULAR_WEIGHT>  (92) 
500.5477

>  <PRODUCTS>  (92) 
Apo-travoprost Z; Apo-travoprost-timop; Duotrav Pq; Izba; Mylan-travoprost Z; PMS-travoprost Z; Sandoz Travoprost; Sandoz Travoprost / Timolol Pq; Teva-travoprost Z Ophthalmic Solution; Travatan; Travatan Z; Travoprost Ophthalmic Solution 0.004%

>  <SALTS>  (92) 
nan

>  <SECONDARY_ACCESSION_NUMBERS>  (92) 
APRD01271

>  <SMILES>  (92) 
CC(C)OC(=O)CCC\C=C/C[C@H]1[C@@H](O)C[C@@H](O)[C@@H]1\C=C\[C@@H](O)COC1=CC=CC(=C1)C(F)(F)F

>  <SYNONYMS>  (92) 
isopropyl (Z)-7-((1R,2R,3R,5S)-3,5-dihydroxy-2-{(1E,3R)-3-hydroxy-4-[(α,α,α-trifluoro-m-tolyl)oxy]-1-butenyl}cyclopentyl)-5-heptenoate; Travoprost; Travoprostum

>  <ECFP_FP>  (92) 
<rdkit.DataStructs.cDataStructs.ExplicitBitVect object at 0xa265ba1c0>

>  <pki_G>  (92) 
5.780253

>  <pki_D>  (92) 
5.785801

>  <pki_B>  (92) 
5.497416

>  <pki_A>  (92) 
5.190797

>  <SelB>  (92) 
0.282837

>  <SelA>  (92) 
0.589457

>  <SelD>  (92) 
-0.005548

>  <AvgABSel>  (92) 
0.436147

>  <MACCS_FP>  (92) 
[0. 0. 0. 0. 0. 0. 0. 0. 0. 0. 0. 0. 0. 0. 0. 0. 0. 0. 0. 0. 0. 0. 0. 0.
 0. 0. 0. 0. 0. 0. 0. 0. 0. 0. 0. 0. 0. 0. 0. 0. 0. 0. 1. 0. 0. 0. 0. 0.
 0. 0. 0. 0. 0. 1. 0. 0. 0. 0. 0. 0. 0. 0. 0. 0. 0. 0. 0. 0. 0. 0. 0. 0.
 1. 0. 1. 0. 0. 0. 0. 0. 0. 0. 0. 0. 0. 0. 0. 0. 0. 1. 1. 1. 0. 0. 0. 0.
 1. 0. 0. 1. 0. 0. 0. 0. 1. 0. 1. 1. 1. 1. 0. 0. 1. 1. 0. 0. 0. 0. 1. 0.
 0. 0. 0. 1. 0. 0. 1. 1. 1. 1. 0. 1. 1. 0. 1. 0. 0. 0. 0. 1. 1. 0. 0. 1.
 0. 0. 1. 1. 0. 1. 1. 0. 1. 1. 1. 1. 0. 1. 0. 1. 1. 0. 1. 1. 1. 1. 0.]

>  <MACCS_pki_G>  (92) 
5.762542

>  <MACCS_pki_D>  (92) 
5.831485

>  <MACCS_pki_B>  (92) 
5.541646

>  <MACCS_pki_A>  (92) 
5.644735

>  <MACCS_SelB>  (92) 
0.220896

>  <MACCS_SelA>  (92) 
0.117807

>  <MACCS_SelD>  (92) 
-0.068944

>  <MACCSAvgABSel>  (92) 
0.169351

>  <Pharm2D_FP>  (92) 
[0. 0. 0. ... 0. 0. 0.]

>  <Pharm2D_pki_G>  (92) 
6.042467

>  <Pharm2D_pki_D>  (92) 
5.535016

>  <Pharm2D_pki_B>  (92) 
5.308304

>  <Pharm2D_pki_A>  (92) 
5.164278

>  <Pharm2D_SelB>  (92) 
0.734163

>  <Pharm2D_SelA>  (92) 
0.878188

>  <Pharm2D_SelD>  (92) 
0.507451

>  <Pharm2DAvgABSel>  (92) 
0.806176

>  <QED>  (92) 
0.223333

$$$$
DB08597
     RDKit          2D

 30 34  0  0  0  0  0  0  0  0999 V2000
    2.6933   -0.4916    0.0000 C   0  0  0  0  0  0  0  0  0  0  0  0
    3.4078   -0.0791    0.0000 C   0  0  0  0  0  0  0  0  0  0  0  0
    4.1223   -0.4916    0.0000 C   0  0  0  0  0  0  0  0  0  0  0  0
    4.1223   -1.3166    0.0000 C   0  0  0  0  0  0  0  0  0  0  0  0
    3.4078   -1.7291    0.0000 C   0  0  0  0  0  0  0  0  0  0  0  0
    2.6933   -1.3166    0.0000 N   0  0  0  0  0  0  0  0  0  0  0  0
    1.9788   -1.7291    0.0000 C   0  0  0  0  0  0  0  0  0  0  0  0
    1.2644   -1.3166    0.0000 C   0  0  0  0  0  0  0  0  0  0  0  0
    0.5499   -1.7291    0.0000 O   0  0  0  0  0  0  0  0  0  0  0  0
   -0.1646   -1.3166    0.0000 C   0  0  0  0  0  0  0  0  0  0  0  0
   -0.8790   -1.7291    0.0000 C   0  0  0  0  0  0  0  0  0  0  0  0
   -1.5935   -1.3166    0.0000 C   0  0  0  0  0  0  0  0  0  0  0  0
   -0.1646   -0.4916    0.0000 C   0  0  0  0  0  0  0  0  0  0  0  0
   -0.8790   -0.0791    0.0000 C   0  0  0  0  0  0  0  0  0  0  0  0
   -1.5935   -0.4916    0.0000 C   0  0  0  0  0  0  0  0  0  0  0  0
   -2.3080   -0.0791    0.0000 C   0  0  0  0  0  0  0  0  0  0  0  0
   -3.0225   -0.4916    0.0000 C   0  0  0  0  0  0  0  0  0  0  0  0
   -2.3080    0.7459    0.0000 C   0  0  0  0  0  0  0  0  0  0  0  0
   -3.0225    1.1584    0.0000 N   0  0  0  0  0  0  0  0  0  0  0  0
   -3.7369    0.7459    0.0000 C   0  0  0  0  0  0  0  0  0  0  0  0
   -3.7369   -0.0791    0.0000 N   0  0  0  0  0  0  0  0  0  0  0  0
   -4.5215   -0.3341    0.0000 N   0  0  0  0  0  0  0  0  0  0  0  0
   -5.0065    0.3334    0.0000 C   0  0  0  0  0  0  0  0  0  0  0  0
   -4.5215    1.0008    0.0000 C   0  0  0  0  0  0  0  0  0  0  0  0
   -4.7765    1.7854    0.0000 C   0  0  0  0  0  0  0  0  0  0  0  0
   -5.5835    1.9569    0.0000 C   0  0  0  0  0  0  0  0  0  0  0  0
   -5.8384    2.7416    0.0000 C   0  0  0  0  0  0  0  0  0  0  0  0
   -5.2864    3.3547    0.0000 N   0  0  0  0  0  0  0  0  0  0  0  0
   -4.4794    3.1831    0.0000 C   0  0  0  0  0  0  0  0  0  0  0  0
   -4.2245    2.3985    0.0000 C   0  0  0  0  0  0  0  0  0  0  0  0
  1  2  1  0
  1  6  1  0
  2  3  1  0
  3  4  1  0
  4  5  1  0
  5  6  1  0
  6  7  1  0
  7  8  1  0
  8  9  1  0
  9 10  1  0
 10 11  2  0
 10 13  1  0
 11 12  1  0
 12 15  2  0
 13 14  2  0
 14 15  1  0
 15 16  1  0
 16 17  2  0
 16 18  1  0
 17 21  1  0
 18 19  2  0
 19 20  1  0
 20 21  1  0
 20 24  2  0
 21 22  1  0
 22 23  2  0
 23 24  1  0
 24 25  1  0
 25 26  2  0
 25 30  1  0
 26 27  1  0
 27 28  2  0
 28 29  1  0
 29 30  2  0
M  END
>  <ALOGPS_LOGP>  (93) 
3.84

>  <ALOGPS_LOGS>  (93) 
-4.43

>  <ALOGPS_SOLUBILITY>  (93) 
1.48e-02 g/l

>  <DATABASE_NAME>  (93) 
drugbank

>  <DRUGBANK_ID>  (93) 
DB08597

>  <DRUG_GROUPS>  (93) 
experimental

>  <EXACT_MASS>  (93) 
399.205910447

>  <FORMULA>  (93) 
C24H25N5O

>  <GENERIC_NAME>  (93) 
6-[4-(2-piperidin-1-ylethoxy)phenyl]-3-pyridin-4-ylpyrazolo[1,5-a]pyrimidine

>  <ID>  (93) 
TAK

>  <INCHI_IDENTIFIER>  (93) 
InChI=1S/C24H25N5O/c1-2-12-28(13-3-1)14-15-30-22-6-4-19(5-7-22)21-16-26-24-23(17-27-29(24)18-21)20-8-10-25-11-9-20/h4-11,16-18H,1-3,12-15H2

>  <INCHI_KEY>  (93) 
XHBVYDAKJHETMP-UHFFFAOYSA-N

>  <INTERNATIONAL_BRANDS>  (93) 
nan

>  <JCHEM_ACCEPTOR_COUNT>  (93) 
5

>  <JCHEM_ATOM_COUNT>  (93) 
nan

>  <JCHEM_AVERAGE_POLARIZABILITY>  (93) 
45.7460924685706

>  <JCHEM_BIOAVAILABILITY>  (93) 
1

>  <JCHEM_DONOR_COUNT>  (93) 
0

>  <JCHEM_FORMAL_CHARGE>  (93) 
0

>  <JCHEM_GHOSE_FILTER>  (93) 
1

>  <JCHEM_IUPAC>  (93) 
4-(6-{4-[2-(piperidin-1-yl)ethoxy]phenyl}pyrazolo[1,5-a]pyrimidin-3-yl)pyridine

>  <JCHEM_LOGP>  (93) 
3.441090306333334

>  <JCHEM_MDDR_LIKE_RULE>  (93) 
1

>  <JCHEM_NUMBER_OF_RINGS>  (93) 
5

>  <JCHEM_PHYSIOLOGICAL_CHARGE>  (93) 
1

>  <JCHEM_PKA>  (93) 
nan

>  <JCHEM_PKA_STRONGEST_ACIDIC>  (93) 
nan

>  <JCHEM_PKA_STRONGEST_BASIC>  (93) 
8.80772156600871

>  <JCHEM_POLAR_SURFACE_AREA>  (93) 
55.55

>  <JCHEM_REFRACTIVITY>  (93) 
128.5134

>  <JCHEM_ROTATABLE_BOND_COUNT>  (93) 
6

>  <JCHEM_RULE_OF_FIVE>  (93) 
1

>  <JCHEM_TRADITIONAL_IUPAC>  (93) 
4-(6-{4-[2-(piperidin-1-yl)ethoxy]phenyl}pyrazolo[1,5-a]pyrimidin-3-yl)pyridine

>  <JCHEM_VEBER_RULE>  (93) 
0

>  <MOLECULAR_WEIGHT>  (93) 
399.4882

>  <PRODUCTS>  (93) 
nan

>  <SALTS>  (93) 
nan

>  <SECONDARY_ACCESSION_NUMBERS>  (93) 
nan

>  <SMILES>  (93) 
C(CN1CCCCC1)OC1=CC=C(C=C1)C1=CN2N=CC(=C2N=C1)C1=CC=NC=C1

>  <SYNONYMS>  (93) 
nan

>  <ECFP_FP>  (93) 
<rdkit.DataStructs.cDataStructs.ExplicitBitVect object at 0xa26b3a990>

>  <pki_G>  (93) 
5.776189

>  <pki_D>  (93) 
6.292669

>  <pki_B>  (93) 
5.537275

>  <pki_A>  (93) 
4.899085

>  <SelB>  (93) 
0.238914

>  <SelA>  (93) 
0.877104

>  <SelD>  (93) 
-0.51648

>  <AvgABSel>  (93) 
0.558009

>  <MACCS_FP>  (93) 
[0. 0. 0. 0. 0. 0. 0. 0. 0. 0. 0. 0. 0. 0. 0. 0. 0. 0. 0. 0. 0. 0. 0. 0.
 0. 0. 0. 0. 0. 0. 0. 0. 0. 0. 0. 0. 0. 0. 1. 0. 0. 0. 0. 0. 0. 0. 0. 0.
 0. 0. 0. 0. 1. 0. 0. 0. 0. 0. 0. 0. 0. 0. 1. 0. 0. 1. 0. 0. 0. 0. 0. 0.
 0. 0. 0. 1. 0. 1. 0. 1. 1. 0. 0. 1. 0. 1. 1. 0. 0. 0. 0. 0. 0. 0. 1. 1.
 1. 0. 1. 0. 1. 1. 0. 0. 0. 1. 0. 0. 0. 1. 0. 1. 0. 1. 0. 0. 0. 0. 1. 0.
 1. 1. 1. 0. 1. 1. 1. 1. 1. 1. 0. 0. 1. 0. 0. 0. 0. 1. 1. 0. 0. 0. 1. 1.
 0. 1. 0. 1. 1. 0. 0. 0. 1. 1. 0. 1. 1. 1. 1. 0. 0. 1. 1. 1. 1. 1. 0.]

>  <MACCS_pki_G>  (93) 
6.285955

>  <MACCS_pki_D>  (93) 
6.019788

>  <MACCS_pki_B>  (93) 
5.786535

>  <MACCS_pki_A>  (93) 
5.547964

>  <MACCS_SelB>  (93) 
0.49942

>  <MACCS_SelA>  (93) 
0.73799

>  <MACCS_SelD>  (93) 
0.266167

>  <MACCSAvgABSel>  (93) 
0.618705

>  <Pharm2D_FP>  (93) 
[0. 0. 0. ... 0. 0. 0.]

>  <Pharm2D_pki_G>  (93) 
6.060378

>  <Pharm2D_pki_D>  (93) 
5.47374

>  <Pharm2D_pki_B>  (93) 
5.427565

>  <Pharm2D_pki_A>  (93) 
5.29479

>  <Pharm2D_SelB>  (93) 
0.632813

>  <Pharm2D_SelA>  (93) 
0.765588

>  <Pharm2D_SelD>  (93) 
0.586638

>  <Pharm2DAvgABSel>  (93) 
0.6992

>  <QED>  (93) 
0.483206

$$$$
DB09253
     RDKit          2D

 15 16  0  0  0  0  0  0  0  0999 V2000
   -2.7740    1.4425    0.0000 N   0  0  0  0  0  0  0  0  0  0  0  0
   -2.0583    1.0263    0.0000 N   0  0  0  0  0  0  0  0  0  0  0  0
   -2.0583    0.2052    0.0000 C   0  0  0  0  0  0  0  0  0  0  0  0
   -1.3482   -0.2052    0.0000 C   0  0  0  0  0  0  0  0  0  0  0  0
   -0.6325    0.2052    0.0000 C   0  0  0  0  0  0  0  0  0  0  0  0
    0.0777   -0.2052    0.0000 C   0  0  0  0  0  0  0  0  0  0  0  0
    0.0777   -1.0319    0.0000 C   0  0  0  0  0  0  0  0  0  0  0  0
    0.7933   -1.4425    0.0000 C   0  0  0  0  0  0  0  0  0  0  0  0
    1.5090   -1.0319    0.0000 C   0  0  0  0  0  0  0  0  0  0  0  0
    1.5090   -0.2052    0.0000 C   0  0  0  0  0  0  0  0  0  0  0  0
    0.7933    0.2052    0.0000 C   0  0  0  0  0  0  0  0  0  0  0  0
    2.2913    0.0499    0.0000 O   0  0  0  0  0  0  0  0  0  0  0  0
    2.7740   -0.6213    0.0000 C   0  0  0  0  0  0  0  0  0  0  0  0
    2.2913   -1.2870    0.0000 O   0  0  0  0  0  0  0  0  0  0  0  0
   -2.7740   -0.2052    0.0000 C   0  0  0  0  0  0  0  0  0  0  0  0
  1  2  1  0
  2  3  1  0
  3  4  1  0
  3 15  1  0
  4  5  1  0
  5  6  1  0
  6  7  2  0
  6 11  1  0
  7  8  1  0
  8  9  2  0
  9 10  1  0
  9 14  1  0
 10 11  2  0
 10 12  1  0
 12 13  1  0
 13 14  1  0
M  END
>  <ALOGPS_LOGP>  (94) 
1.51

>  <ALOGPS_LOGS>  (94) 
-1.97

>  <ALOGPS_SOLUBILITY>  (94) 
2.24e+00 g/l

>  <DATABASE_NAME>  (94) 
drugbank

>  <DRUGBANK_ID>  (94) 
DB09253

>  <DRUG_GROUPS>  (94) 
withdrawn

>  <EXACT_MASS>  (94) 
208.121177763

>  <FORMULA>  (94) 
C11H16N2O2

>  <GENERIC_NAME>  (94) 
Safrazine

>  <ID>  (94) 


>  <INCHI_IDENTIFIER>  (94) 
InChI=1S/C11H16N2O2/c1-8(13-12)2-3-9-4-5-10-11(6-9)15-7-14-10/h4-6,8,13H,2-3,7,12H2,1H3

>  <INCHI_KEY>  (94) 
IBWPUTAKVGZXRB-UHFFFAOYSA-N

>  <INTERNATIONAL_BRANDS>  (94) 
nan

>  <JCHEM_ACCEPTOR_COUNT>  (94) 
4

>  <JCHEM_ATOM_COUNT>  (94) 
31

>  <JCHEM_AVERAGE_POLARIZABILITY>  (94) 
23.142393393148517

>  <JCHEM_BIOAVAILABILITY>  (94) 
1

>  <JCHEM_DONOR_COUNT>  (94) 
2

>  <JCHEM_FORMAL_CHARGE>  (94) 
0

>  <JCHEM_GHOSE_FILTER>  (94) 
1

>  <JCHEM_IUPAC>  (94) 
[4-(2H-1,3-benzodioxol-5-yl)butan-2-yl]hydrazine

>  <JCHEM_LOGP>  (94) 
1.6873972

>  <JCHEM_MDDR_LIKE_RULE>  (94) 
0

>  <JCHEM_NUMBER_OF_RINGS>  (94) 
2

>  <JCHEM_PHYSIOLOGICAL_CHARGE>  (94) 
0

>  <JCHEM_PKA>  (94) 
nan

>  <JCHEM_PKA_STRONGEST_ACIDIC>  (94) 
nan

>  <JCHEM_PKA_STRONGEST_BASIC>  (94) 
5.79816051590171

>  <JCHEM_POLAR_SURFACE_AREA>  (94) 
56.510000000000005

>  <JCHEM_REFRACTIVITY>  (94) 
69.05000000000001

>  <JCHEM_ROTATABLE_BOND_COUNT>  (94) 
4

>  <JCHEM_RULE_OF_FIVE>  (94) 
1

>  <JCHEM_TRADITIONAL_IUPAC>  (94) 
[4-(2H-1,3-benzodioxol-5-yl)butan-2-yl]hydrazine

>  <JCHEM_VEBER_RULE>  (94) 
0

>  <MOLECULAR_WEIGHT>  (94) 
208.261

>  <PRODUCTS>  (94) 
nan

>  <SALTS>  (94) 
nan

>  <SECONDARY_ACCESSION_NUMBERS>  (94) 
nan

>  <SMILES>  (94) 
CC(CCC1=CC2=C(OCO2)C=C1)NN

>  <SYNONYMS>  (94) 
Safra

>  <ECFP_FP>  (94) 
<rdkit.DataStructs.cDataStructs.ExplicitBitVect object at 0xa26b8e1c0>

>  <pki_G>  (94) 
5.775881

>  <pki_D>  (94) 
5.996017

>  <pki_B>  (94) 
5.425498

>  <pki_A>  (94) 
5.677939

>  <SelB>  (94) 
0.350383

>  <SelA>  (94) 
0.097942

>  <SelD>  (94) 
-0.220136

>  <AvgABSel>  (94) 
0.224163

>  <MACCS_FP>  (94) 
[0. 0. 0. 0. 0. 0. 0. 0. 0. 0. 0. 0. 0. 0. 0. 0. 0. 0. 0. 0. 0. 0. 0. 0.
 0. 0. 0. 0. 1. 0. 0. 0. 0. 0. 0. 0. 0. 0. 0. 0. 0. 0. 0. 0. 0. 0. 0. 0.
 0. 0. 0. 0. 1. 0. 0. 0. 0. 1. 0. 0. 0. 0. 0. 0. 0. 0. 0. 0. 1. 1. 0. 0.
 1. 0. 0. 0. 0. 0. 0. 0. 0. 0. 0. 1. 1. 0. 0. 0. 0. 0. 1. 1. 0. 0. 1. 0.
 1. 0. 0. 0. 0. 1. 0. 0. 1. 1. 0. 0. 0. 1. 0. 1. 0. 1. 0. 1. 1. 0. 1. 0.
 1. 0. 0. 1. 1. 0. 0. 0. 0. 0. 0. 1. 0. 0. 0. 0. 0. 1. 0. 0. 0. 0. 1. 0.
 1. 0. 0. 1. 0. 0. 0. 1. 1. 1. 0. 1. 1. 1. 1. 1. 1. 1. 1. 1. 1. 1. 0.]

>  <MACCS_pki_G>  (94) 
6.497265

>  <MACCS_pki_D>  (94) 
5.954702

>  <MACCS_pki_B>  (94) 
5.827323

>  <MACCS_pki_A>  (94) 
5.459111

>  <MACCS_SelB>  (94) 
0.669942

>  <MACCS_SelA>  (94) 
1.038154

>  <MACCS_SelD>  (94) 
0.542562

>  <MACCSAvgABSel>  (94) 
0.854048

>  <Pharm2D_FP>  (94) 
[0. 0. 0. ... 0. 0. 0.]

>  <Pharm2D_pki_G>  (94) 
5.825474

>  <Pharm2D_pki_D>  (94) 
5.398904

>  <Pharm2D_pki_B>  (94) 
5.351382

>  <Pharm2D_pki_A>  (94) 
5.295366

>  <Pharm2D_SelB>  (94) 
0.474092

>  <Pharm2D_SelA>  (94) 
0.530108

>  <Pharm2D_SelD>  (94) 
0.42657

>  <Pharm2DAvgABSel>  (94) 
0.5021

>  <QED>  (94) 
0.576369

$$$$
DB08715
     RDKit          2D

 24 26  0  0  0  0  0  0  0  0999 V2000
   -3.6636    0.2838    0.0000 O   0  0  0  0  0  0  0  0  0  0  0  0
   -4.2157    0.8969    0.0000 N   0  0  0  0  0  0  0  0  0  0  0  0
   -3.8032    1.6114    0.0000 C   0  0  0  0  0  0  0  0  0  0  0  0
   -4.1387    2.3650    0.0000 C   0  0  0  0  0  0  0  0  0  0  0  0
   -2.9962    1.4398    0.0000 C   0  0  0  0  0  0  0  0  0  0  0  0
   -2.9100    0.6194    0.0000 C   0  0  0  0  0  0  0  0  0  0  0  0
   -2.1955    0.2069    0.0000 C   0  0  0  0  0  0  0  0  0  0  0  0
   -1.4810    0.6194    0.0000 C   0  0  0  0  0  0  0  0  0  0  0  0
   -0.7665    0.2069    0.0000 C   0  0  0  0  0  0  0  0  0  0  0  0
   -0.0521    0.6194    0.0000 O   0  0  0  0  0  0  0  0  0  0  0  0
    0.6624    0.2069    0.0000 C   0  0  0  0  0  0  0  0  0  0  0  0
    1.3769    0.6194    0.0000 C   0  0  0  0  0  0  0  0  0  0  0  0
    1.3769    1.4444    0.0000 C   0  0  0  0  0  0  0  0  0  0  0  0
    2.0913    0.2069    0.0000 C   0  0  0  0  0  0  0  0  0  0  0  0
    2.0913   -0.6181    0.0000 C   0  0  0  0  0  0  0  0  0  0  0  0
    1.3769   -1.0306    0.0000 C   0  0  0  0  0  0  0  0  0  0  0  0
    0.6624   -0.6181    0.0000 C   0  0  0  0  0  0  0  0  0  0  0  0
   -0.0521   -1.0306    0.0000 C   0  0  0  0  0  0  0  0  0  0  0  0
    2.8058   -1.0306    0.0000 C   0  0  0  0  0  0  0  0  0  0  0  0
    3.5595   -0.6951    0.0000 C   0  0  0  0  0  0  0  0  0  0  0  0
    2.8920   -1.8511    0.0000 N   0  0  0  0  0  0  0  0  0  0  0  0
    3.6990   -2.0226    0.0000 C   0  0  0  0  0  0  0  0  0  0  0  0
    4.0346   -2.7763    0.0000 C   0  0  0  0  0  0  0  0  0  0  0  0
    4.1115   -1.3082    0.0000 O   0  0  0  0  0  0  0  0  0  0  0  0
  1  2  1  0
  1  6  1  0
  2  3  2  0
  3  4  1  0
  3  5  1  0
  5  6  2  0
  6  7  1  0
  7  8  1  0
  8  9  1  0
  9 10  1  0
 10 11  1  0
 11 12  2  0
 11 17  1  0
 12 13  1  0
 12 14  1  0
 14 15  2  0
 15 16  1  0
 15 19  1  0
 16 17  2  0
 17 18  1  0
 19 20  2  0
 19 21  1  0
 20 24  1  0
 21 22  2  0
 22 23  1  0
 22 24  1  0
M  END
>  <ALOGPS_LOGP>  (95) 
4.46

>  <ALOGPS_LOGS>  (95) 
-4.10

>  <ALOGPS_SOLUBILITY>  (95) 
2.59e-02 g/l

>  <DATABASE_NAME>  (95) 
drugbank

>  <DRUGBANK_ID>  (95) 
DB08715

>  <DRUG_GROUPS>  (95) 
experimental

>  <EXACT_MASS>  (95) 
326.16304258

>  <FORMULA>  (95) 
C19H22N2O3

>  <GENERIC_NAME>  (95) 
2,6-DIMETHYL-1-(3-[3-METHYL-5-ISOXAZOLYL]-PROPANYL)-4-[2-METHYL-4-ISOXAZOLYL]-PHENOL

>  <ID>  (95) 
W03

>  <INCHI_IDENTIFIER>  (95) 
InChI=1S/C19H22N2O3/c1-12-8-16(18-11-23-15(4)20-18)9-13(2)19(12)22-7-5-6-17-10-14(3)21-24-17/h8-11H,5-7H2,1-4H3

>  <INCHI_KEY>  (95) 
SLPKYEWAKMNCPT-UHFFFAOYSA-N

>  <INTERNATIONAL_BRANDS>  (95) 
nan

>  <JCHEM_ACCEPTOR_COUNT>  (95) 
3

>  <JCHEM_ATOM_COUNT>  (95) 
nan

>  <JCHEM_AVERAGE_POLARIZABILITY>  (95) 
37.68706084458252

>  <JCHEM_BIOAVAILABILITY>  (95) 
1

>  <JCHEM_DONOR_COUNT>  (95) 
0

>  <JCHEM_FORMAL_CHARGE>  (95) 
0

>  <JCHEM_GHOSE_FILTER>  (95) 
1

>  <JCHEM_IUPAC>  (95) 
4-{3,5-dimethyl-4-[3-(3-methyl-1,2-oxazol-5-yl)propoxy]phenyl}-2-methyl-1,3-oxazole

>  <JCHEM_LOGP>  (95) 
3.658161351666667

>  <JCHEM_MDDR_LIKE_RULE>  (95) 
1

>  <JCHEM_NUMBER_OF_RINGS>  (95) 
3

>  <JCHEM_PHYSIOLOGICAL_CHARGE>  (95) 
0

>  <JCHEM_PKA>  (95) 
nan

>  <JCHEM_PKA_STRONGEST_ACIDIC>  (95) 
nan

>  <JCHEM_PKA_STRONGEST_BASIC>  (95) 
1.6638094502832337

>  <JCHEM_POLAR_SURFACE_AREA>  (95) 
61.290000000000006

>  <JCHEM_REFRACTIVITY>  (95) 
92.5515

>  <JCHEM_ROTATABLE_BOND_COUNT>  (95) 
6

>  <JCHEM_RULE_OF_FIVE>  (95) 
1

>  <JCHEM_TRADITIONAL_IUPAC>  (95) 
4-{3,5-dimethyl-4-[3-(3-methyl-1,2-oxazol-5-yl)propoxy]phenyl}-2-methyl-1,3-oxazole

>  <JCHEM_VEBER_RULE>  (95) 
0

>  <MOLECULAR_WEIGHT>  (95) 
326.3896

>  <PRODUCTS>  (95) 
nan

>  <SALTS>  (95) 
nan

>  <SECONDARY_ACCESSION_NUMBERS>  (95) 
nan

>  <SMILES>  (95) 
CC1=NC(=CO1)C1=CC(C)=C(OCCCC2=CC(C)=NO2)C(C)=C1

>  <SYNONYMS>  (95) 
nan

>  <ECFP_FP>  (95) 
<rdkit.DataStructs.cDataStructs.ExplicitBitVect object at 0xa26b4ca80>

>  <pki_G>  (95) 
5.775852

>  <pki_D>  (95) 
5.82302

>  <pki_B>  (95) 
5.454002

>  <pki_A>  (95) 
5.091359

>  <SelB>  (95) 
0.32185

>  <SelA>  (95) 
0.684493

>  <SelD>  (95) 
-0.047168

>  <AvgABSel>  (95) 
0.503172

>  <MACCS_FP>  (95) 
[0. 0. 0. 0. 0. 0. 0. 0. 0. 0. 0. 0. 0. 0. 0. 0. 0. 0. 0. 0. 0. 0. 0. 0.
 0. 0. 0. 0. 0. 0. 0. 0. 0. 0. 0. 0. 0. 0. 0. 0. 0. 0. 0. 0. 0. 0. 0. 0.
 0. 0. 0. 0. 0. 0. 0. 0. 0. 1. 0. 0. 0. 0. 1. 0. 0. 1. 0. 0. 0. 0. 0. 1.
 0. 0. 0. 0. 0. 0. 0. 0. 0. 0. 0. 1. 0. 0. 0. 0. 0. 0. 0. 0. 1. 0. 1. 1.
 1. 1. 0. 0. 0. 0. 1. 0. 0. 0. 0. 0. 1. 1. 1. 0. 0. 1. 0. 0. 0. 1. 1. 0.
 1. 1. 0. 0. 1. 1. 1. 1. 0. 0. 0. 0. 1. 0. 0. 0. 0. 1. 0. 0. 0. 1. 1. 1.
 1. 0. 1. 1. 0. 1. 1. 0. 1. 1. 0. 1. 1. 1. 0. 1. 1. 1. 1. 1. 1. 1. 0.]

>  <MACCS_pki_G>  (95) 
6.148306

>  <MACCS_pki_D>  (95) 
5.646895

>  <MACCS_pki_B>  (95) 
5.594412

>  <MACCS_pki_A>  (95) 
5.47154

>  <MACCS_SelB>  (95) 
0.553894

>  <MACCS_SelA>  (95) 
0.676766

>  <MACCS_SelD>  (95) 
0.501411

>  <MACCSAvgABSel>  (95) 
0.61533

>  <Pharm2D_FP>  (95) 
[0. 0. 0. ... 0. 0. 0.]

>  <Pharm2D_pki_G>  (95) 
5.725203

>  <Pharm2D_pki_D>  (95) 
5.508425

>  <Pharm2D_pki_B>  (95) 
5.302106

>  <Pharm2D_pki_A>  (95) 
5.525972

>  <Pharm2D_SelB>  (95) 
0.423098

>  <Pharm2D_SelA>  (95) 
0.199231

>  <Pharm2D_SelD>  (95) 
0.216779

>  <Pharm2DAvgABSel>  (95) 
0.311164

>  <QED>  (95) 
0.620705

$$$$
DB07520
     RDKit          2D

 32 34  0  0  0  0  0  0  0  0999 V2000
    3.6552   -2.2338    0.0000 C   0  0  0  0  0  0  0  0  0  0  0  0
    2.9408   -0.9963    0.0000 C   0  0  0  0  0  0  0  0  0  0  0  0
    2.2263   -1.4088    0.0000 C   0  0  0  0  0  0  0  0  0  0  0  0
    2.2263   -2.2338    0.0000 C   0  0  0  0  0  0  0  0  0  0  0  0
    2.9408   -2.6463    0.0000 C   0  0  0  0  0  0  0  0  0  0  0  0
    3.6552   -1.4088    0.0000 C   0  0  0  0  0  0  0  0  0  0  0  0
    1.5118   -0.9963    0.0000 C   0  0  0  0  0  0  0  0  0  0  0  0
    4.3697   -2.6463    0.0000 F   0  0  0  0  0  0  0  0  0  0  0  0
    0.7973   -1.4088    0.0000 N   0  0  0  0  0  0  0  0  0  0  0  0
    1.5118   -0.1713    0.0000 C   0  0  0  0  0  0  0  0  0  0  0  0
    0.0829   -0.9963    0.0000 C   0  0  0  0  0  0  0  0  0  0  0  0
    0.0829   -0.1713    0.0000 C   0  0  0  0  0  0  0  0  0  0  0  0
   -0.6316   -1.4088    0.0000 C   0  0  0  0  0  0  0  0  0  0  0  0
   -1.3461   -0.9963    0.0000 S   0  0  0  0  0  0  0  0  0  0  0  0
   -2.0605   -0.5838    0.0000 N   0  0  0  0  0  0  0  0  0  0  0  0
   -0.6316    0.2412    0.0000 N   0  0  0  0  0  0  0  0  0  0  0  0
    0.7973    0.2412    0.0000 O   0  0  0  0  0  0  0  0  0  0  0  0
   -0.6316    1.0662    0.0000 C   0  0  0  0  0  0  0  0  0  0  0  0
   -0.3494    1.8414    0.0000 C   0  0  0  0  0  0  0  0  0  0  0  0
    0.1809    1.2094    0.0000 C   0  0  0  0  0  0  0  0  0  0  0  0
   -0.9336   -0.2819    0.0000 O   0  0  0  0  0  0  0  0  0  0  0  0
    1.5118    0.6537    0.0000 F   0  0  0  0  0  0  0  0  0  0  0  0
    2.3368   -0.1713    0.0000 F   0  0  0  0  0  0  0  0  0  0  0  0
    0.6868   -0.1713    0.0000 F   0  0  0  0  0  0  0  0  0  0  0  0
   -1.7586   -1.7108    0.0000 O   0  0  0  0  0  0  0  0  0  0  0  0
   -2.7750   -0.9963    0.0000 C   0  0  0  0  0  0  0  0  0  0  0  0
   -3.4895   -0.5838    0.0000 C   0  0  0  0  0  0  0  0  0  0  0  0
   -3.4895    0.2412    0.0000 O   0  0  0  0  0  0  0  0  0  0  0  0
   -2.7750    0.6537    0.0000 C   0  0  0  0  0  0  0  0  0  0  0  0
   -2.0605    0.2412    0.0000 C   0  0  0  0  0  0  0  0  0  0  0  0
   -1.7262    1.9847    0.0000 N   0  0  0  0  0  0  0  0  0  0  0  0
   -1.4441    1.2094    0.0000 C   0  0  0  0  0  0  0  0  0  0  0  0
  1  5  2  0
  1  6  1  0
  1  8  1  0
  2  3  1  0
  2  6  2  0
  3  4  2  0
  3  7  1  0
  4  5  1  0
  7  9  1  6
  7 10  1  0
 11  9  1  0
 10 22  1  0
 10 23  1  0
 10 24  1  0
 11 12  1  0
 11 13  1  1
 12 16  1  0
 12 17  2  0
 13 14  1  0
 14 15  1  0
 14 21  2  0
 14 25  2  0
 15 26  1  0
 15 30  1  0
 16 18  1  0
 18 19  1  0
 18 20  1  0
 18 32  1  0
 19 20  1  0
 26 27  1  0
 27 28  1  0
 28 29  1  0
 29 30  1  0
 31 32  1  0
M  END
>  <ALOGPS_LOGP>  (96) 
0.8

>  <ALOGPS_LOGS>  (96) 
-2.93

>  <ALOGPS_SOLUBILITY>  (96) 
5.69e-01 g/l

>  <DATABASE_NAME>  (96) 
drugbank

>  <DRUGBANK_ID>  (96) 
DB07520

>  <DRUG_GROUPS>  (96) 
experimental

>  <EXACT_MASS>  (96) 
482.16108885

>  <FORMULA>  (96) 
C19H26F4N4O4S

>  <GENERIC_NAME>  (96) 
N-[1-(AMINOMETHYL)CYCLOPROPYL]-3-(MORPHOLIN-4-YLSULFONYL)-N~2~-[(1S)-2,2,2-TRIFLUORO-1-(4-FLUOROPHENYL)ETHYL]-L-ALANINAMIDE

>  <ID>  (96) 
C28

>  <INCHI_IDENTIFIER>  (96) 
InChI=1S/C19H26F4N4O4S/c20-14-3-1-13(2-4-14)16(19(21,22)23)25-15(17(28)26-18(12-24)5-6-18)11-32(29,30)27-7-9-31-10-8-27/h1-4,15-16,25H,5-12,24H2,(H,26,28)/t15-,16-/m0/s1

>  <INCHI_KEY>  (96) 
BJIKKEHGGYGGIX-HOTGVXAUSA-N

>  <INTERNATIONAL_BRANDS>  (96) 
nan

>  <JCHEM_ACCEPTOR_COUNT>  (96) 
6

>  <JCHEM_ATOM_COUNT>  (96) 
nan

>  <JCHEM_AVERAGE_POLARIZABILITY>  (96) 
42.965966439435306

>  <JCHEM_BIOAVAILABILITY>  (96) 
1

>  <JCHEM_DONOR_COUNT>  (96) 
3

>  <JCHEM_FORMAL_CHARGE>  (96) 
0

>  <JCHEM_GHOSE_FILTER>  (96) 
0

>  <JCHEM_IUPAC>  (96) 
(2R)-N-[1-(aminomethyl)cyclopropyl]-3-(morpholine-4-sulfonyl)-2-{[(1S)-2,2,2-trifluoro-1-(4-fluorophenyl)ethyl]amino}propanamide

>  <JCHEM_LOGP>  (96) 
0.06244881666666655

>  <JCHEM_MDDR_LIKE_RULE>  (96) 
1

>  <JCHEM_NUMBER_OF_RINGS>  (96) 
3

>  <JCHEM_PHYSIOLOGICAL_CHARGE>  (96) 
1

>  <JCHEM_PKA>  (96) 
nan

>  <JCHEM_PKA_STRONGEST_ACIDIC>  (96) 
11.961167318151277

>  <JCHEM_PKA_STRONGEST_BASIC>  (96) 
9.200365672627386

>  <JCHEM_POLAR_SURFACE_AREA>  (96) 
113.75999999999999

>  <JCHEM_REFRACTIVITY>  (96) 
107.33169999999997

>  <JCHEM_ROTATABLE_BOND_COUNT>  (96) 
9

>  <JCHEM_RULE_OF_FIVE>  (96) 
1

>  <JCHEM_TRADITIONAL_IUPAC>  (96) 
(2R)-N-[1-(aminomethyl)cyclopropyl]-3-(morpholine-4-sulfonyl)-2-{[(1S)-2,2,2-trifluoro-1-(4-fluorophenyl)ethyl]amino}propanamide

>  <JCHEM_VEBER_RULE>  (96) 
0

>  <MOLECULAR_WEIGHT>  (96) 
482.493

>  <PRODUCTS>  (96) 
nan

>  <SALTS>  (96) 
nan

>  <SECONDARY_ACCESSION_NUMBERS>  (96) 
nan

>  <SMILES>  (96) 
[H][C@@](CS(=O)(=O)N1CCOCC1)(N[C@@]([H])(C1=CC=C(F)C=C1)C(F)(F)F)C(=O)NC1(CN)CC1

>  <SYNONYMS>  (96) 
nan

>  <ECFP_FP>  (96) 
<rdkit.DataStructs.cDataStructs.ExplicitBitVect object at 0xa26a913a0>

>  <pki_G>  (96) 
5.772851

>  <pki_D>  (96) 
5.991134

>  <pki_B>  (96) 
5.348271

>  <pki_A>  (96) 
5.351658

>  <SelB>  (96) 
0.42458

>  <SelA>  (96) 
0.421193

>  <SelD>  (96) 
-0.218282

>  <AvgABSel>  (96) 
0.422887

>  <MACCS_FP>  (96) 
[0. 0. 0. 0. 0. 0. 0. 0. 0. 0. 0. 0. 0. 0. 0. 0. 0. 0. 0. 0. 0. 0. 1. 0.
 0. 0. 0. 0. 0. 0. 0. 0. 1. 1. 0. 0. 0. 0. 0. 0. 0. 0. 1. 0. 0. 0. 0. 0.
 0. 0. 0. 1. 0. 0. 1. 1. 0. 1. 1. 0. 1. 1. 0. 0. 1. 0. 1. 1. 0. 0. 0. 0.
 0. 1. 0. 1. 0. 0. 0. 1. 1. 1. 1. 0. 1. 0. 1. 1. 1. 0. 1. 1. 1. 0. 1. 1.
 0. 1. 1. 0. 1. 0. 1. 0. 1. 0. 1. 1. 0. 1. 1. 1. 1. 0. 0. 0. 0. 1. 1. 0.
 1. 1. 1. 0. 1. 0. 0. 0. 1. 1. 1. 1. 1. 1. 1. 0. 1. 1. 1. 0. 1. 0. 1. 0.
 0. 1. 1. 1. 1. 0. 0. 1. 0. 1. 1. 1. 1. 1. 1. 1. 0. 1. 1. 1. 1. 1. 0.]

>  <MACCS_pki_G>  (96) 
5.989088

>  <MACCS_pki_D>  (96) 
5.865513

>  <MACCS_pki_B>  (96) 
5.370303

>  <MACCS_pki_A>  (96) 
5.858052

>  <MACCS_SelB>  (96) 
0.618785

>  <MACCS_SelA>  (96) 
0.131037

>  <MACCS_SelD>  (96) 
0.123575

>  <MACCSAvgABSel>  (96) 
0.374911

>  <Pharm2D_FP>  (96) 
[0. 0. 0. ... 0. 0. 0.]

>  <Pharm2D_pki_G>  (96) 
6.068128

>  <Pharm2D_pki_D>  (96) 
5.523453

>  <Pharm2D_pki_B>  (96) 
5.53949

>  <Pharm2D_pki_A>  (96) 
5.034905

>  <Pharm2D_SelB>  (96) 
0.528639

>  <Pharm2D_SelA>  (96) 
1.033224

>  <Pharm2D_SelD>  (96) 
0.544676

>  <Pharm2DAvgABSel>  (96) 
0.780931

>  <QED>  (96) 
0.445892

$$$$
DB02905
     RDKit          2D

 23 25  0  0  1  0  0  0  0  0999 V2000
    2.6378    0.1271    0.0000 C   0  0  0  0  0  0  0  0  0  0  0  0
    1.1387    2.8736    0.0000 C   0  0  0  0  0  0  0  0  0  0  0  0
    0.6538   -0.6979    0.0000 C   0  0  0  0  0  0  0  0  0  0  0  0
    1.9233   -0.2854    0.0000 C   0  0  0  0  0  0  0  0  0  0  0  0
    0.8838    2.0890    0.0000 C   0  0  0  0  0  0  0  0  0  0  0  0
    0.0992    1.8341    0.0000 C   0  0  0  0  0  0  0  0  0  0  0  0
    0.0992    1.0091    0.0000 C   0  0  0  0  0  0  0  0  0  0  0  0
    1.9233   -1.1104    0.0000 C   0  0  0  0  0  0  0  0  0  0  0  0
    0.8838    0.7541    0.0000 C   0  0  0  0  0  0  0  0  0  0  0  0
    3.3523   -1.1104    0.0000 C   0  0  0  0  0  0  0  0  0  0  0  0
    3.3523   -0.2854    0.0000 N   0  0  0  0  0  0  0  0  0  0  0  0
    1.1387   -1.3654    0.0000 N   0  0  0  0  0  0  0  0  0  0  0  0
    2.6378   -1.5229    0.0000 N   0  0  0  0  0  0  0  0  0  0  0  0
    1.1387   -0.0305    0.0000 N   0  0  0  0  0  0  0  0  0  0  0  0
   -0.5683    2.3190    0.0000 O   0  0  0  0  0  0  0  0  0  0  0  0
   -0.5683    0.5241    0.0000 O   0  0  0  0  0  0  0  0  0  0  0  0
    4.0668   -1.5229    0.0000 O   0  0  0  0  0  0  0  0  0  0  0  0
    2.4556    4.6144    0.0000 O   0  0  0  0  0  0  0  0  0  0  0  0
    2.9853    3.5748    0.0000 O   0  0  0  0  0  0  0  0  0  0  0  0
    1.4160    4.0847    0.0000 O   0  0  0  0  0  0  0  0  0  0  0  0
    1.9457    3.0451    0.0000 O   0  0  0  0  0  0  0  0  0  0  0  0
    1.3687    1.4216    0.0000 O   0  0  0  0  0  0  0  0  0  0  0  0
    2.2006    3.8298    0.0000 P   0  0  0  0  0  0  0  0  0  0  0  0
  4  1  2  0
  5  2  1  1
  6  5  1  0
  7  6  1  0
  8  4  1  0
  9  7  1  0
 11  1  1  0
 11 10  2  0
 12  3  2  0
 12  8  1  0
 13  8  2  0
 13 10  1  0
 14  3  1  0
 14  4  1  0
  9 14  1  6
  6 15  1  6
  7 16  1  6
 17 10  1  0
 21  2  1  0
 22  5  1  0
 22  9  1  0
 23 18  1  0
 23 19  1  0
 23 20  2  0
 23 21  1  0
M  END
>  <ALOGPS_LOGP>  (97) 
-1.92

>  <ALOGPS_LOGS>  (97) 
-2.01

>  <ALOGPS_SOLUBILITY>  (97) 
3.39e+00 g/l

>  <DATABASE_NAME>  (97) 
drugbank

>  <DRUGBANK_ID>  (97) 
DB02905

>  <DRUG_GROUPS>  (97) 
experimental

>  <EXACT_MASS>  (97) 
348.047099924

>  <FORMULA>  (97) 
C10H13N4O8P

>  <GENERIC_NAME>  (97) 
Phosphoric Acid Mono-[3,4-Dihydroxy-5-(5-Hydroxy-Benzoimidazol-1-Yl)Tetrahydro-Furan-2-Ylmethyl] Ester

>  <ID>  (97) 


>  <INCHI_IDENTIFIER>  (97) 
InChI=1S/C10H13N4O8P/c15-6-5(2-21-23(18,19)20)22-9(7(6)16)14-3-12-8-4(14)1-11-10(17)13-8/h1,3,5-7,9,15-16H,2H2,(H,11,13,17)(H2,18,19,20)/t5-,6-,7-,9+/m1/s1

>  <INCHI_KEY>  (97) 
BVZASCINAVSQNO-PULFBKJNSA-N

>  <INTERNATIONAL_BRANDS>  (97) 
nan

>  <JCHEM_ACCEPTOR_COUNT>  (97) 
10

>  <JCHEM_ATOM_COUNT>  (97) 
nan

>  <JCHEM_AVERAGE_POLARIZABILITY>  (97) 
29.259374976197893

>  <JCHEM_BIOAVAILABILITY>  (97) 
1

>  <JCHEM_DONOR_COUNT>  (97) 
5

>  <JCHEM_FORMAL_CHARGE>  (97) 
0

>  <JCHEM_GHOSE_FILTER>  (97) 
0

>  <JCHEM_IUPAC>  (97) 
{[(2R,3S,4R,5S)-3,4-dihydroxy-5-(2-hydroxy-7H-purin-7-yl)oxolan-2-yl]methoxy}phosphonic acid

>  <JCHEM_LOGP>  (97) 
-3.001462938778248

>  <JCHEM_MDDR_LIKE_RULE>  (97) 
0

>  <JCHEM_NUMBER_OF_RINGS>  (97) 
3

>  <JCHEM_PHYSIOLOGICAL_CHARGE>  (97) 
-2

>  <JCHEM_PKA>  (97) 
6.250605132804432

>  <JCHEM_PKA_STRONGEST_ACIDIC>  (97) 
1.2029454994729654

>  <JCHEM_PKA_STRONGEST_BASIC>  (97) 
2.5355810384799127

>  <JCHEM_POLAR_SURFACE_AREA>  (97) 
180.27999999999997

>  <JCHEM_REFRACTIVITY>  (97) 
72.6017

>  <JCHEM_ROTATABLE_BOND_COUNT>  (97) 
4

>  <JCHEM_RULE_OF_FIVE>  (97) 
1

>  <JCHEM_TRADITIONAL_IUPAC>  (97) 
[(2R,3S,4R,5S)-3,4-dihydroxy-5-(2-hydroxypurin-7-yl)oxolan-2-yl]methoxyphosphonic acid

>  <JCHEM_VEBER_RULE>  (97) 
0

>  <MOLECULAR_WEIGHT>  (97) 
348.206

>  <PRODUCTS>  (97) 
nan

>  <SALTS>  (97) 
nan

>  <SECONDARY_ACCESSION_NUMBERS>  (97) 
EXPT02475

>  <SMILES>  (97) 
[H][C@]1(COP(O)(O)=O)O[C@]([H])(N2C=NC3=NC(O)=NC=C23)[C@]([H])(O)[C@]1([H])O

>  <SYNONYMS>  (97) 
nan

>  <ECFP_FP>  (97) 
<rdkit.DataStructs.cDataStructs.ExplicitBitVect object at 0xa2677cf80>

>  <pki_G>  (97) 
5.771706

>  <pki_D>  (97) 
5.824388

>  <pki_B>  (97) 
5.362716

>  <pki_A>  (97) 
4.991317

>  <SelB>  (97) 
0.408989

>  <SelA>  (97) 
0.780388

>  <SelD>  (97) 
-0.052682

>  <AvgABSel>  (97) 
0.594689

>  <MACCS_FP>  (97) 
[0. 0. 0. 0. 0. 0. 0. 0. 0. 0. 0. 0. 0. 0. 0. 0. 0. 0. 0. 0. 0. 0. 0. 0.
 0. 0. 0. 0. 0. 1. 0. 0. 0. 0. 0. 0. 0. 1. 1. 0. 0. 0. 0. 1. 0. 0. 0. 0.
 1. 0. 0. 0. 0. 0. 1. 0. 0. 1. 0. 0. 0. 0. 1. 0. 0. 1. 0. 0. 0. 1. 0. 0.
 1. 0. 0. 1. 0. 1. 0. 1. 1. 0. 0. 1. 0. 1. 0. 0. 0. 1. 1. 1. 1. 0. 0. 1.
 1. 1. 1. 0. 0. 1. 1. 0. 0. 1. 1. 0. 0. 1. 1. 0. 1. 1. 0. 0. 0. 1. 0. 0.
 1. 1. 1. 0. 1. 1. 1. 1. 0. 0. 1. 1. 1. 1. 0. 0. 0. 1. 0. 1. 1. 0. 1. 1.
 0. 0. 1. 0. 1. 0. 1. 0. 1. 1. 0. 1. 1. 1. 1. 1. 0. 1. 1. 1. 1. 1. 0.]

>  <MACCS_pki_G>  (97) 
6.392242

>  <MACCS_pki_D>  (97) 
5.840321

>  <MACCS_pki_B>  (97) 
5.662475

>  <MACCS_pki_A>  (97) 
5.600444

>  <MACCS_SelB>  (97) 
0.729767

>  <MACCS_SelA>  (97) 
0.791797

>  <MACCS_SelD>  (97) 
0.551921

>  <MACCSAvgABSel>  (97) 
0.760782

>  <Pharm2D_FP>  (97) 
[0. 0. 0. ... 0. 0. 0.]

>  <Pharm2D_pki_G>  (97) 
6.228962

>  <Pharm2D_pki_D>  (97) 
6.067248

>  <Pharm2D_pki_B>  (97) 
5.530817

>  <Pharm2D_pki_A>  (97) 
5.590163

>  <Pharm2D_SelB>  (97) 
0.698145

>  <Pharm2D_SelA>  (97) 
0.638799

>  <Pharm2D_SelD>  (97) 
0.161714

>  <Pharm2DAvgABSel>  (97) 
0.668472

>  <QED>  (97) 
0.39564

$$$$
DB08861
     RDKit          2D

 44 46  0  0  0  0  0  0  0  0999 V2000
   -2.5353    2.2702    0.0000 S   0  0  0  0  0  0  0  0  0  0  0  0
   -2.5353    1.4452    0.0000 S   0  0  0  0  0  0  0  0  0  0  0  0
   -1.1064    1.4452    0.0000 C   0  0  0  0  0  0  0  0  0  0  0  0
   -1.1064    2.2702    0.0000 C   0  0  0  0  0  0  0  0  0  0  0  0
   -1.8209    2.6827    0.0000 C   0  0  0  0  0  0  0  0  0  0  0  0
   -3.2498    0.2078    0.0000 C   0  0  0  0  0  0  0  0  0  0  0  0
   -2.5353   -0.2871    0.0000 N   0  0  0  0  0  0  0  0  0  0  0  0
   -1.1064   -0.2046    0.0000 C   0  0  0  0  0  0  0  0  0  0  0  0
   -0.3918    0.2078    0.0000 C   0  0  0  0  0  0  0  0  0  0  0  0
   -0.3918    1.0328    0.0000 N   0  0  0  0  0  0  0  0  0  0  0  0
   -2.5353   -1.0296    0.0000 C   0  0  0  0  0  0  0  0  0  0  0  0
   -1.8208   -1.4421    0.0000 C   0  0  0  0  0  0  0  0  0  0  0  0
   -1.1064   -1.0296    0.0000 N   0  0  0  0  0  0  0  0  0  0  0  0
   -1.8097    0.2014    0.0000 O   0  0  0  0  0  0  0  0  0  0  0  0
   -1.8097    1.0390    0.0000 O   0  0  0  0  0  0  0  0  0  0  0  0
   -0.3770    2.6827    0.0000 N   0  0  0  0  0  0  0  0  0  0  0  0
    0.3373    2.2702    0.0000 C   0  0  0  0  0  0  0  0  0  0  0  0
    1.0518    2.6827    0.0000 C   0  0  0  0  0  0  0  0  0  0  0  0
    1.7661    2.2702    0.0000 C   0  0  0  0  0  0  0  0  0  0  0  0
    2.4808    2.6827    0.0000 C   0  0  0  0  0  0  0  0  0  0  0  0
    3.2074    2.2631    0.0000 C   0  0  0  0  0  0  0  0  0  0  0  0
    3.9219    2.6754    0.0000 C   0  0  0  0  0  0  0  0  0  0  0  0
    3.9221    3.5004    0.0000 C   0  0  0  0  0  0  0  0  0  0  0  0
    3.1954    3.9201    0.0000 C   0  0  0  0  0  0  0  0  0  0  0  0
    2.4808    3.5077    0.0000 C   0  0  0  0  0  0  0  0  0  0  0  0
    1.0518    3.5077    0.0000 N   0  0  0  0  0  0  0  0  0  0  0  0
    0.3373    1.5691    0.0000 O   0  0  0  0  0  0  0  0  0  0  0  0
   -1.4083    3.3972    0.0000 C   0  0  0  0  0  0  0  0  0  0  0  0
   -2.2333    3.3972    0.0000 C   0  0  0  0  0  0  0  0  0  0  0  0
   -3.9542   -0.1990    0.0000 C   0  0  0  0  0  0  0  0  0  0  0  0
   -4.6539    0.2048    0.0000 O   0  0  0  0  0  0  0  0  0  0  0  0
   -3.9543   -1.0295    0.0000 O   0  0  0  0  0  0  0  0  0  0  0  0
   -3.2498   -1.4421    0.0000 O   0  0  0  0  0  0  0  0  0  0  0  0
    4.6538    3.9228    0.0000 O   0  0  0  0  0  0  0  0  0  0  0  0
   -1.8208   -2.2670    0.0000 C   0  0  0  0  0  0  0  0  0  0  0  0
   -2.5452   -2.6854    0.0000 C   0  0  0  0  0  0  0  0  0  0  0  0
   -3.2546   -2.2758    0.0000 C   0  0  0  0  0  0  0  0  0  0  0  0
   -3.9691   -2.6881    0.0000 C   0  0  0  0  0  0  0  0  0  0  0  0
   -3.9691   -3.5131    0.0000 C   0  0  0  0  0  0  0  0  0  0  0  0
   -3.2597   -3.9228    0.0000 C   0  0  0  0  0  0  0  0  0  0  0  0
   -2.5452   -3.5104    0.0000 C   0  0  0  0  0  0  0  0  0  0  0  0
   -3.6622    1.7472    0.0000 C   0  0  0  0  0  0  0  0  0  0  0  0
   -4.0747    1.0328    0.0000 C   0  0  0  0  0  0  0  0  0  0  0  0
   -3.2498    1.0328    0.0000 C   0  0  0  0  0  0  0  0  0  0  0  0
  1  2  1  0
  3  4  1  0
  4  5  1  0
  1  5  1  0
  2 44  1  0
 44  6  1  0
  6  7  1  0
  8  9  1  0
  9 10  1  0
  3 10  1  0
  7 11  1  0
 11 12  1  0
 12 13  1  0
 13  8  1  0
  8 14  2  0
  3 15  2  0
  4 16  1  1
 16 17  1  0
 17 18  1  0
 18 19  1  0
 19 20  1  0
 20 21  2  0
 21 22  1  0
 22 23  2  0
 23 24  1  0
 24 25  2  0
 20 25  1  0
 18 26  1  1
 17 27  2  0
  5 28  1  0
  5 29  1  0
  6 30  1  1
 30 31  1  0
 30 32  2  0
 11 33  2  0
 23 34  1  0
 12 35  1  1
 35 36  1  0
 36 37  2  0
 37 38  1  0
 38 39  2  0
 39 40  1  0
 40 41  2  0
 36 41  1  0
 43 44  1  0
 44 42  1  0
M  END
>  <ALOGPS_LOGP>  (98) 
0.59

>  <ALOGPS_LOGS>  (98) 
-5.01

>  <ALOGPS_SOLUBILITY>  (98) 
6.32e-03 g/l

>  <DATABASE_NAME>  (98) 
drugbank

>  <DRUGBANK_ID>  (98) 
DB08861

>  <DRUG_GROUPS>  (98) 
experimental

>  <EXACT_MASS>  (98) 
645.229090964

>  <FORMULA>  (98) 
C30H39N5O7S2

>  <GENERIC_NAME>  (98) 
DPDPE

>  <ID>  (98) 


>  <INCHI_IDENTIFIER>  (98) 
InChI=1S/C30H39N5O7S2/c1-29(2)23(34-25(38)20(31)14-18-10-12-19(36)13-11-18)27(40)32-16-22(37)33-21(15-17-8-6-5-7-9-17)26(39)35-24(28(41)42)30(3,4)44-43-29/h5-13,20-21,23-24,36H,14-16,31H2,1-4H3,(H,32,40)(H,33,37)(H,34,38)(H,35,39)(H,41,42)/t20-,21-,23-,24-/m0/s1

>  <INCHI_KEY>  (98) 
MCMMCRYPQBNCPH-WMIMKTLMSA-N

>  <INTERNATIONAL_BRANDS>  (98) 
nan

>  <JCHEM_ACCEPTOR_COUNT>  (98) 
8

>  <JCHEM_ATOM_COUNT>  (98) 
83

>  <JCHEM_AVERAGE_POLARIZABILITY>  (98) 
65.63689904572192

>  <JCHEM_BIOAVAILABILITY>  (98) 
0

>  <JCHEM_DONOR_COUNT>  (98) 
7

>  <JCHEM_FORMAL_CHARGE>  (98) 
0

>  <JCHEM_GHOSE_FILTER>  (98) 
0

>  <JCHEM_IUPAC>  (98) 
(4S,7S,13S)-13-[(2S)-2-amino-3-(4-hydroxyphenyl)propanamido]-7-benzyl-3,3,14,14-tetramethyl-6,9,12-trioxo-1,2-dithia-5,8,11-triazacyclotetradecane-4-carboxylic acid

>  <JCHEM_LOGP>  (98) 
-1.0190731151831478

>  <JCHEM_MDDR_LIKE_RULE>  (98) 
1

>  <JCHEM_NUMBER_OF_RINGS>  (98) 
3

>  <JCHEM_PHYSIOLOGICAL_CHARGE>  (98) 
0

>  <JCHEM_PKA>  (98) 
9.491696214551192

>  <JCHEM_PKA_STRONGEST_ACIDIC>  (98) 
3.385301802542697

>  <JCHEM_PKA_STRONGEST_BASIC>  (98) 
7.726557988190343

>  <JCHEM_POLAR_SURFACE_AREA>  (98) 
199.94999999999996

>  <JCHEM_REFRACTIVITY>  (98) 
168.07109999999997

>  <JCHEM_ROTATABLE_BOND_COUNT>  (98) 
7

>  <JCHEM_RULE_OF_FIVE>  (98) 
0

>  <JCHEM_TRADITIONAL_IUPAC>  (98) 
(4S,7S,13S)-13-[(2S)-2-amino-3-(4-hydroxyphenyl)propanamido]-7-benzyl-3,3,14,14-tetramethyl-6,9,12-trioxo-1,2-dithia-5,8,11-triazacyclotetradecane-4-carboxylic acid

>  <JCHEM_VEBER_RULE>  (98) 
0

>  <MOLECULAR_WEIGHT>  (98) 
645.79

>  <PRODUCTS>  (98) 
nan

>  <SALTS>  (98) 
nan

>  <SECONDARY_ACCESSION_NUMBERS>  (98) 
nan

>  <SMILES>  (98) 
CC1(C)SSC(C)(C)[C@@H](NC(=O)[C@@H](N)CC2=CC=C(O)C=C2)C(=O)NCC(=O)N[C@@H](CC2=CC=CC=C2)C(=O)N[C@H]1C(O)=O

>  <SYNONYMS>  (98) 
(D-Pen2,D-Pen5)-Enkephalin; [D-Pen2-D-Pen5]-enkephaline; 2,5-Pen-enkephalin; cyclo-[D-Pen2,5]-enkephalin; D-penicillamine-(2,5)-enkephalin; L-tyrosyl-3-mercapto-D-valylglycyl-L-phenylalanyl-3-mercapto-D-valine, cyclic (2-5)-disulfide

>  <ECFP_FP>  (98) 
<rdkit.DataStructs.cDataStructs.ExplicitBitVect object at 0xa26b5dd50>

>  <pki_G>  (98) 
5.769482

>  <pki_D>  (98) 
5.844335

>  <pki_B>  (98) 
5.326643

>  <pki_A>  (98) 
5.587684

>  <SelB>  (98) 
0.442839

>  <SelA>  (98) 
0.181798

>  <SelD>  (98) 
-0.074853

>  <AvgABSel>  (98) 
0.312318

>  <MACCS_FP>  (98) 
[0. 0. 0. 0. 0. 0. 0. 0. 0. 0. 0. 0. 0. 0. 1. 0. 0. 0. 0. 0. 0. 0. 0. 0.
 0. 0. 0. 0. 0. 0. 0. 0. 0. 0. 0. 0. 1. 0. 0. 0. 0. 0. 0. 0. 0. 0. 0. 0.
 0. 0. 0. 0. 0. 0. 1. 0. 0. 0. 0. 0. 0. 0. 0. 0. 0. 0. 1. 1. 0. 0. 0. 0.
 0. 0. 1. 0. 0. 0. 0. 1. 0. 1. 1. 0. 1. 0. 0. 0. 1. 0. 1. 1. 1. 0. 0. 1.
 0. 0. 0. 0. 1. 1. 0. 0. 1. 0. 0. 0. 0. 0. 1. 1. 1. 1. 0. 0. 0. 1. 0. 0.
 1. 1. 0. 1. 1. 1. 0. 1. 1. 0. 0. 1. 1. 1. 0. 0. 1. 1. 0. 1. 1. 1. 1. 1.
 0. 1. 1. 0. 0. 1. 1. 1. 1. 1. 1. 1. 1. 1. 1. 1. 1. 1. 1. 1. 1. 1. 0.]

>  <MACCS_pki_G>  (98) 
5.872915

>  <MACCS_pki_D>  (98) 
5.981976

>  <MACCS_pki_B>  (98) 
5.509946

>  <MACCS_pki_A>  (98) 
6.206417

>  <MACCS_SelB>  (98) 
0.36297

>  <MACCS_SelA>  (98) 
-0.333502

>  <MACCS_SelD>  (98) 
-0.109061

>  <MACCSAvgABSel>  (98) 
0.014734

>  <Pharm2D_FP>  (98) 
[0. 0. 0. ... 0. 0. 0.]

>  <Pharm2D_pki_G>  (98) 
6.627151

>  <Pharm2D_pki_D>  (98) 
5.744189

>  <Pharm2D_pki_B>  (98) 
5.953092

>  <Pharm2D_pki_A>  (98) 
5.38112

>  <Pharm2D_SelB>  (98) 
0.674059

>  <Pharm2D_SelA>  (98) 
1.246031

>  <Pharm2D_SelD>  (98) 
0.882962

>  <Pharm2DAvgABSel>  (98) 
0.960045

>  <QED>  (98) 
0.214099

$$$$
DB11519
     RDKit          2D

 32 33  0  0  1  0  0  0  0  0999 V2000
   10.0142    3.6771    0.0000 F   0  0  0  0  0  0  0  0  0  0  0  0
   11.6641    3.6771    0.0000 F   0  0  0  0  0  0  0  0  0  0  0  0
   10.8392    4.5021    0.0000 F   0  0  0  0  0  0  0  0  0  0  0  0
    7.0838   -4.0348    0.0000 O   0  0  0  0  0  0  0  0  0  0  0  0
    9.4334   -2.3278    0.0000 O   0  0  0  0  0  0  0  0  0  0  0  0
    7.9813    0.3771    0.0000 O   0  0  0  0  0  0  0  0  0  0  0  0
    9.4103    1.2021    0.0000 O   0  0  0  0  0  0  0  0  0  0  0  0
    2.6062   -1.0532    0.0000 O   0  0  0  0  0  0  0  0  0  0  0  0
    7.3139   -2.5828    0.0000 C   0  0  0  0  0  0  0  0  0  0  0  0
    7.9813   -2.0979    0.0000 C   0  0  0  0  0  0  0  0  0  0  0  0
    7.5688   -3.3674    0.0000 C   0  0  0  0  0  0  0  0  0  0  0  0
    8.6487   -2.5828    0.0000 C   0  0  0  0  0  0  0  0  0  0  0  0
    8.3938   -3.3674    0.0000 C   0  0  0  0  0  0  0  0  0  0  0  0
    6.5293   -2.3278    0.0000 C   0  0  0  0  0  0  0  0  0  0  0  0
    7.9813   -1.2729    0.0000 C   0  0  0  0  0  0  0  0  0  0  0  0
    5.9162   -2.8799    0.0000 C   0  0  0  0  0  0  0  0  0  0  0  0
    8.6958   -0.8604    0.0000 C   0  0  0  0  0  0  0  0  0  0  0  0
    8.6958   -0.0354    0.0000 C   0  0  0  0  0  0  0  0  0  0  0  0
    5.1315   -2.6250    0.0000 C   0  0  0  0  0  0  0  0  0  0  0  0
    4.9600   -1.8180    0.0000 C   0  0  0  0  0  0  0  0  0  0  0  0
    9.4103    0.3771    0.0000 C   0  0  0  0  0  0  0  0  0  0  0  0
    4.1754   -1.5631    0.0000 C   0  0  0  0  0  0  0  0  0  0  0  0
    4.0039   -0.7560    0.0000 C   0  0  0  0  0  0  0  0  0  0  0  0
   10.1247    1.6146    0.0000 C   0  0  0  0  0  0  0  0  0  0  0  0
    3.2192   -0.5011    0.0000 C   0  0  0  0  0  0  0  0  0  0  0  0
   10.1247    2.4396    0.0000 C   0  0  0  0  0  0  0  0  0  0  0  0
   10.8392    1.2021    0.0000 C   0  0  0  0  0  0  0  0  0  0  0  0
   10.8392    2.8521    0.0000 C   0  0  0  0  0  0  0  0  0  0  0  0
   11.5538    1.6146    0.0000 C   0  0  0  0  0  0  0  0  0  0  0  0
   11.5538    2.4396    0.0000 C   0  0  0  0  0  0  0  0  0  0  0  0
   10.8392    3.6771    0.0000 C   0  0  0  0  0  0  0  0  0  0  0  0
    3.0475    0.3058    0.0000 O   0  0  0  0  0  0  0  0  0  0  0  0
  1 31  1  0
  2 31  1  0
  3 31  1  0
 11  4  1  6
 12  5  1  6
 18  6  1  1
  7 21  1  0
  7 24  1  0
  8 25  2  0
  9 10  1  0
  9 11  1  0
  9 14  1  6
 10 12  1  0
 10 15  1  1
 11 13  1  0
 12 13  1  0
 14 16  1  0
 15 17  2  0
 16 19  2  0
 17 18  1  0
 18 21  1  0
 19 20  1  0
 20 22  1  0
 22 23  1  0
 23 25  1  0
 24 26  2  0
 24 27  1  0
 26 28  1  0
 27 29  2  0
 28 30  2  0
 28 31  1  0
 29 30  1  0
 25 32  1  0
M  END
>  <ALOGPS_LOGP>  (99) 
3.39

>  <ALOGPS_LOGS>  (99) 
-4.45

>  <ALOGPS_SOLUBILITY>  (99) 
1.64e-02 g/l

>  <DATABASE_NAME>  (99) 
drugbank

>  <DRUGBANK_ID>  (99) 
DB11519

>  <DRUG_GROUPS>  (99) 
vet_approved

>  <EXACT_MASS>  (99) 
458.191623143

>  <FORMULA>  (99) 
C23H29F3O6

>  <GENERIC_NAME>  (99) 
Fluprostenol

>  <ID>  (99) 
287

>  <INCHI_IDENTIFIER>  (99) 
InChI=1S/C23H29F3O6/c24-23(25,26)15-6-5-7-17(12-15)32-14-16(27)10-11-19-18(20(28)13-21(19)29)8-3-1-2-4-9-22(30)31/h1,3,5-7,10-12,16,18-21,27-29H,2,4,8-9,13-14H2,(H,30,31)/b3-1-,11-10+/t16-,18-,19-,20+,21-/m1/s1

>  <INCHI_KEY>  (99) 
WWSWYXNVCBLWNZ-QIZQQNKQSA-N

>  <INTERNATIONAL_BRANDS>  (99) 
nan

>  <JCHEM_ACCEPTOR_COUNT>  (99) 
6

>  <JCHEM_ATOM_COUNT>  (99) 
61

>  <JCHEM_AVERAGE_POLARIZABILITY>  (99) 
45.10442187400305

>  <JCHEM_BIOAVAILABILITY>  (99) 
1

>  <JCHEM_DONOR_COUNT>  (99) 
4

>  <JCHEM_FORMAL_CHARGE>  (99) 
0

>  <JCHEM_GHOSE_FILTER>  (99) 
1

>  <JCHEM_IUPAC>  (99) 
(5Z)-7-[(1R,2R,3R,5S)-3,5-dihydroxy-2-[(3R)-3-hydroxy-4-[3-(trifluoromethyl)phenoxy]but-1-en-1-yl]cyclopentyl]hept-5-enoic acid

>  <JCHEM_LOGP>  (99) 
2.919916161333333

>  <JCHEM_MDDR_LIKE_RULE>  (99) 
0

>  <JCHEM_NUMBER_OF_RINGS>  (99) 
2

>  <JCHEM_PHYSIOLOGICAL_CHARGE>  (99) 
-1

>  <JCHEM_PKA>  (99) 
13.948068466084013

>  <JCHEM_PKA_STRONGEST_ACIDIC>  (99) 
4.355293595886775

>  <JCHEM_PKA_STRONGEST_BASIC>  (99) 
-2.872004062695197

>  <JCHEM_POLAR_SURFACE_AREA>  (99) 
107.22000000000001

>  <JCHEM_REFRACTIVITY>  (99) 
113.921

>  <JCHEM_ROTATABLE_BOND_COUNT>  (99) 
12

>  <JCHEM_RULE_OF_FIVE>  (99) 
1

>  <JCHEM_TRADITIONAL_IUPAC>  (99) 
(5Z)-7-[(1R,2R,3R,5S)-3,5-dihydroxy-2-[(3R)-3-hydroxy-4-[3-(trifluoromethyl)phenoxy]but-1-en-1-yl]cyclopentyl]hept-5-enoic acid

>  <JCHEM_VEBER_RULE>  (99) 
0

>  <MOLECULAR_WEIGHT>  (99) 
458.474

>  <PRODUCTS>  (99) 
nan

>  <SALTS>  (99) 
Fluprostenol sodium

>  <SECONDARY_ACCESSION_NUMBERS>  (99) 
nan

>  <SMILES>  (99) 
O[C@@H](COC1=CC=CC(=C1)C(F)(F)F)\C=C\[C@H]1[C@H](O)C[C@H](O)[C@@H]1C\C=C/CCCC(O)=O

>  <SYNONYMS>  (99) 
fluprostenol; Fluprostenolum; Travoprost acid; Travoprost free acid

>  <ECFP_FP>  (99) 
<rdkit.DataStructs.cDataStructs.ExplicitBitVect object at 0xa26bc9490>

>  <pki_G>  (99) 
5.76642

>  <pki_D>  (99) 
5.790912

>  <pki_B>  (99) 
5.521532

>  <pki_A>  (99) 
5.132475

>  <SelB>  (99) 
0.244887

>  <SelA>  (99) 
0.633945

>  <SelD>  (99) 
-0.024492

>  <AvgABSel>  (99) 
0.439416

>  <MACCS_FP>  (99) 
[0. 0. 0. 0. 0. 0. 0. 0. 0. 0. 0. 0. 0. 0. 0. 0. 0. 0. 0. 0. 0. 0. 0. 0.
 0. 0. 0. 0. 0. 0. 0. 0. 0. 0. 0. 0. 0. 0. 0. 0. 0. 0. 1. 0. 0. 0. 0. 0.
 0. 0. 0. 0. 0. 1. 0. 0. 0. 0. 0. 0. 0. 0. 0. 0. 0. 0. 0. 0. 0. 0. 0. 0.
 1. 0. 0. 0. 0. 0. 0. 0. 0. 0. 0. 0. 0. 0. 0. 0. 0. 1. 1. 1. 0. 0. 0. 0.
 1. 0. 0. 1. 0. 0. 0. 0. 1. 0. 1. 1. 0. 1. 0. 0. 1. 1. 0. 0. 0. 0. 1. 0.
 0. 0. 0. 1. 0. 0. 1. 1. 1. 1. 0. 1. 1. 0. 1. 0. 0. 0. 0. 1. 1. 0. 0. 1.
 0. 0. 1. 1. 0. 0. 1. 0. 1. 1. 1. 1. 0. 1. 0. 1. 0. 0. 1. 1. 1. 1. 0.]

>  <MACCS_pki_G>  (99) 
5.781923

>  <MACCS_pki_D>  (99) 
5.831485

>  <MACCS_pki_B>  (99) 
5.556424

>  <MACCS_pki_A>  (99) 
5.644735

>  <MACCS_SelB>  (99) 
0.225499

>  <MACCS_SelA>  (99) 
0.137188

>  <MACCS_SelD>  (99) 
-0.049563

>  <MACCSAvgABSel>  (99) 
0.181343

>  <Pharm2D_FP>  (99) 
[0. 0. 0. ... 0. 0. 0.]

>  <Pharm2D_pki_G>  (99) 
6.042467

>  <Pharm2D_pki_D>  (99) 
5.535016

>  <Pharm2D_pki_B>  (99) 
5.312554

>  <Pharm2D_pki_A>  (99) 
5.164278

>  <Pharm2D_SelB>  (99) 
0.729913

>  <Pharm2D_SelA>  (99) 
0.878188

>  <Pharm2D_SelD>  (99) 
0.507451

>  <Pharm2DAvgABSel>  (99) 
0.804051

>  <QED>  (99) 
0.298454

$$$$
DB00684
     RDKit          2D

 32 34  0  0  1  0  0  0  0  0999 V2000
   12.1679  -11.8385    0.0000 C   0  0  0  0  0  0  0  0  0  0  0  0
   12.1679  -12.6635    0.0000 C   0  0  0  0  0  0  0  0  0  0  0  0
   12.8824  -13.0760    0.0000 C   0  0  0  0  0  0  0  0  0  0  0  0
   13.5969  -12.6635    0.0000 C   0  0  0  0  0  0  0  0  0  0  0  0
   13.5969  -11.8385    0.0000 C   0  0  0  0  0  0  0  0  0  0  0  0
   12.8824  -11.4260    0.0000 O   0  0  0  0  0  0  0  0  0  0  0  0
   11.4535  -11.4260    0.0000 C   0  0  0  0  0  0  0  0  0  0  0  0
   10.7490  -11.8329    0.0000 O   0  0  0  0  0  0  0  0  0  0  0  0
   11.4535  -13.0760    0.0000 O   0  0  0  0  0  0  0  0  0  0  0  0
   12.8824  -13.9009    0.0000 N   0  0  0  0  0  0  0  0  0  0  0  0
   14.3224  -13.0825    0.0000 O   0  0  0  0  0  0  0  0  0  0  0  0
   14.3224  -11.4195    0.0000 O   0  0  0  0  0  0  0  0  0  0  0  0
   15.0142  -11.0135    0.0000 C   0  0  0  0  0  0  0  0  0  0  0  0
   15.7316  -11.4209    0.0000 C   0  0  0  0  0  0  0  0  0  0  0  0
   16.4431  -11.0034    0.0000 C   0  0  0  0  0  0  0  0  0  0  0  0
   16.4372  -10.1784    0.0000 C   0  0  0  0  0  0  0  0  0  0  0  0
   15.7199   -9.7709    0.0000 C   0  0  0  0  0  0  0  0  0  0  0  0
   15.0084  -10.1885    0.0000 C   0  0  0  0  0  0  0  0  0  0  0  0
   15.7375  -12.2507    0.0000 N   0  0  0  0  0  0  0  0  0  0  0  0
   17.1290   -9.7723    0.0000 N   0  0  0  0  0  0  0  0  0  0  0  0
   14.2954   -9.7836    0.0000 O   0  0  0  0  0  0  0  0  0  0  0  0
   15.7140   -8.9510    0.0000 O   0  0  0  0  0  0  0  0  0  0  0  0
   16.4266   -8.5328    0.0000 C   0  0  0  0  0  0  0  0  0  0  0  0
   17.1389   -8.9373    0.0000 O   0  0  0  0  0  0  0  0  0  0  0  0
   17.8504   -8.5198    0.0000 C   0  0  0  0  0  0  0  0  0  0  0  0
   17.8446   -7.6948    0.0000 C   0  0  0  0  0  0  0  0  0  0  0  0
   17.1323   -7.2903    0.0000 C   0  0  0  0  0  0  0  0  0  0  0  0
   16.4207   -7.7078    0.0000 C   0  0  0  0  0  0  0  0  0  0  0  0
   18.5834   -8.9358    0.0000 C   0  0  0  0  0  0  0  0  0  0  0  0
   18.5894   -9.7759    0.0000 N   0  0  0  0  0  0  0  0  0  0  0  0
   18.5594   -7.2752    0.0000 O   0  0  0  0  0  0  0  0  0  0  0  0
   15.7028   -7.3000    0.0000 N   0  0  0  0  0  0  0  0  0  0  0  0
  1  2  1  0
  2  3  1  0
  3  4  1  0
  4  5  1  0
  5  6  1  0
  1  6  1  0
  1  7  1  1
  7  8  1  0
  2  9  1  6
  3 10  1  1
  4 11  1  6
  5 12  1  6
 13 12  1  6
 13 14  1  0
 14 15  1  0
 15 16  1  0
 16 17  1  0
 17 18  1  0
 13 18  1  0
 14 19  1  1
 16 20  1  1
 18 21  1  1
 17 22  1  6
 23 22  1  6
 23 24  1  0
 24 25  1  0
 25 26  1  0
 26 27  1  0
 27 28  1  0
 23 28  1  0
 25 29  1  1
 29 30  1  0
 26 31  1  6
 28 32  1  6
M  END
>  <ALOGPS_LOGP>  (100) 
-2.98

>  <ALOGPS_LOGS>  (100) 
-0.94

>  <ALOGPS_SOLUBILITY>  (100) 
5.37e+01 g/l

>  <DATABASE_NAME>  (100) 
drugbank

>  <DRUGBANK_ID>  (100) 
DB00684

>  <DRUG_GROUPS>  (100) 
approved; investigational

>  <EXACT_MASS>  (100) 
467.259127807

>  <FORMULA>  (100) 
C18H37N5O9

>  <GENERIC_NAME>  (100) 
Tobramycin

>  <ID>  (100) 
 

>  <INCHI_IDENTIFIER>  (100) 
InChI=1S/C18H37N5O9/c19-3-9-8(25)2-7(22)17(29-9)31-15-5(20)1-6(21)16(14(15)28)32-18-13(27)11(23)12(26)10(4-24)30-18/h5-18,24-28H,1-4,19-23H2/t5-,6+,7+,8-,9+,10+,11-,12+,13+,14-,15+,16-,17+,18+/m0/s1

>  <INCHI_KEY>  (100) 
NLVFBUXFDBBNBW-PBSUHMDJSA-N

>  <INTERNATIONAL_BRANDS>  (100) 
Aktob; Alveoterol; Amgy; Bactob; Belbarmicina; Bideon Biotic; Bioptic; Bramitob; Gernebcin; Nebcin; Obracin; Tobracin; Tobramaxin

>  <JCHEM_ACCEPTOR_COUNT>  (100) 
14

>  <JCHEM_ATOM_COUNT>  (100) 
nan

>  <JCHEM_AVERAGE_POLARIZABILITY>  (100) 
47.182264548541966

>  <JCHEM_BIOAVAILABILITY>  (100) 
0

>  <JCHEM_DONOR_COUNT>  (100) 
10

>  <JCHEM_FORMAL_CHARGE>  (100) 
0

>  <JCHEM_GHOSE_FILTER>  (100) 
0

>  <JCHEM_IUPAC>  (100) 
(2S,3R,4S,5S,6R)-4-amino-2-{[(1S,2S,3R,4S,6R)-4,6-diamino-3-{[(2R,3R,5S,6R)-3-amino-6-(aminomethyl)-5-hydroxyoxan-2-yl]oxy}-2-hydroxycyclohexyl]oxy}-6-(hydroxymethyl)oxane-3,5-diol

>  <JCHEM_LOGP>  (100) 
-6.477500564666668

>  <JCHEM_MDDR_LIKE_RULE>  (100) 
1

>  <JCHEM_NUMBER_OF_RINGS>  (100) 
3

>  <JCHEM_PHYSIOLOGICAL_CHARGE>  (100) 
5

>  <JCHEM_PKA>  (100) 
13.132781993910879

>  <JCHEM_PKA_STRONGEST_ACIDIC>  (100) 
12.542545735150494

>  <JCHEM_PKA_STRONGEST_BASIC>  (100) 
9.826251293406527

>  <JCHEM_POLAR_SURFACE_AREA>  (100) 
268.16999999999996

>  <JCHEM_REFRACTIVITY>  (100) 
106.69489999999998

>  <JCHEM_ROTATABLE_BOND_COUNT>  (100) 
6

>  <JCHEM_RULE_OF_FIVE>  (100) 
0

>  <JCHEM_TRADITIONAL_IUPAC>  (100) 
tobramycin

>  <JCHEM_VEBER_RULE>  (100) 
0

>  <MOLECULAR_WEIGHT>  (100) 
467.5145

>  <PRODUCTS>  (100) 
Aj-tobramycin; Apo-tobramycin; Bethkis; Jamp-tobramycin; Kitabis Pak; Nebcin Inj 1.2gm/30ml; Nebcin Inj 10mg/ml; Nebcin Inj 10mg/ml (vantage Vial); Nebcin Inj 40mg/ml; Nebcin Inj 60mg; Nebcin Inj 80mg; PMS-tobramycin 0.3% Ophthalmic Solution; Sandoz Tobramycin 0.3%; TOBI Podhaler; Teva-tobramycin; Tobi; Tobi Podhaler; TobraDex; Tobradex; Tobradex ST; Tobraflex; Tobramycin; Tobramycin Inhalation Solution; Tobramycin Inhalation Solution Pak; Tobramycin Inhalation Solution USP; Tobramycin Injection; Tobramycin Injection USP; Tobramycin Injection, USP; Tobramycin Ophthalmic Solution; Tobramycin Ophthalmic Solution USP 0.3%; Tobramycin Sulfate; Tobramycin and Dexamethasone; Tobramycin for Injection; Tobramycin for Injection U.S.P.; Tobramycin in Sodium Chloride; Tobrex; Tobrexan; Zylet

>  <SALTS>  (100) 
Tobramycin hydrochloride; Tobramycin sulfate

>  <SECONDARY_ACCESSION_NUMBERS>  (100) 
APRD00582

>  <SMILES>  (100) 
NC[C@H]1O[C@H](O[C@@H]2[C@@H](N)C[C@@H](N)[C@H](O[C@H]3O[C@H](CO)[C@@H](O)[C@H](N)[C@H]3O)[C@H]2O)[C@H](N)C[C@@H]1O

>  <SYNONYMS>  (100) 
3'-Deoxykanamycin B; Nebramycin 6; O-3-Amino-3-deoxy-alpha-D-glucopyranosyl-(1-4)-O-(2,6-diamino-2,3,6-trideoxy-alpha-D-ribohexopyranosyl-(1-4))-2-deoxy-D-streptamine; Tobramicina; Tobramycin; Tobramycine; Tobramycinum

>  <ECFP_FP>  (100) 
<rdkit.DataStructs.cDataStructs.ExplicitBitVect object at 0xa26616760>

>  <pki_G>  (100) 
5.755915

>  <pki_D>  (100) 
5.862512

>  <pki_B>  (100) 
5.480984

>  <pki_A>  (100) 
5.022814

>  <SelB>  (100) 
0.274931

>  <SelA>  (100) 
0.733101

>  <SelD>  (100) 
-0.106597

>  <AvgABSel>  (100) 
0.504016

>  <MACCS_FP>  (100) 
[0. 0. 0. 0. 0. 0. 0. 0. 0. 0. 0. 0. 0. 0. 0. 0. 0. 0. 0. 0. 0. 0. 0. 0.
 0. 0. 0. 0. 0. 0. 0. 0. 0. 0. 0. 0. 0. 0. 0. 0. 0. 0. 0. 0. 0. 0. 0. 0.
 0. 0. 0. 0. 0. 1. 1. 0. 0. 1. 0. 0. 0. 0. 0. 0. 0. 0. 0. 0. 0. 0. 0. 0.
 1. 0. 0. 0. 0. 0. 0. 0. 1. 0. 1. 0. 1. 0. 0. 0. 0. 1. 1. 1. 0. 0. 0. 1.
 0. 1. 1. 0. 1. 0. 0. 0. 1. 0. 0. 0. 0. 1. 0. 1. 0. 0. 0. 0. 0. 0. 0. 0.
 1. 0. 0. 1. 0. 0. 1. 1. 0. 1. 0. 1. 1. 1. 0. 0. 0. 1. 1. 1. 1. 0. 1. 1.
 0. 1. 1. 0. 0. 0. 1. 1. 1. 1. 0. 1. 1. 1. 1. 1. 0. 1. 0. 1. 1. 1. 0.]

>  <MACCS_pki_G>  (100) 
6.198538

>  <MACCS_pki_D>  (100) 
5.858533

>  <MACCS_pki_B>  (100) 
6.113452

>  <MACCS_pki_A>  (100) 
6.041834

>  <MACCS_SelB>  (100) 
0.085086

>  <MACCS_SelA>  (100) 
0.156704

>  <MACCS_SelD>  (100) 
0.340005

>  <MACCSAvgABSel>  (100) 
0.120895

>  <Pharm2D_FP>  (100) 
[0. 0. 0. ... 0. 0. 0.]

>  <Pharm2D_pki_G>  (100) 
6.586306

>  <Pharm2D_pki_D>  (100) 
5.906264

>  <Pharm2D_pki_B>  (100) 
5.720499

>  <Pharm2D_pki_A>  (100) 
5.128721

>  <Pharm2D_SelB>  (100) 
0.865807

>  <Pharm2D_SelA>  (100) 
1.457586

>  <Pharm2D_SelD>  (100) 
0.680043

>  <Pharm2DAvgABSel>  (100) 
1.161697

>  <QED>  (100) 
0.174007

$$$$
DB01820
     RDKit          2D

 39 41  0  0  1  0  0  0  0  0999 V2000
   -5.0013    3.7125    0.0000 C   0  0  0  0  0  0  0  0  0  0  0  0
    0.0000    2.4750    0.0000 C   0  0  0  0  0  0  0  0  0  0  0  0
   -4.2868    4.1250    0.0000 C   0  0  0  0  0  0  0  0  0  0  0  0
   -3.5724    3.7125    0.0000 C   0  0  0  0  0  0  0  0  0  0  0  0
   -0.0000    7.4250    0.0000 C   0  0  0  0  0  0  0  0  0  0  0  0
    0.7145    7.8375    0.0000 C   0  0  0  0  0  0  0  0  0  0  0  0
    5.0013    5.3625    0.0000 C   0  0  0  0  0  0  0  0  0  0  0  0
    5.0013    6.1875    0.0000 C   0  0  0  0  0  0  0  0  0  0  0  0
   -2.8579    4.1250    0.0000 C   0  0  0  0  0  0  0  0  0  0  0  0
   -0.0000    6.6000    0.0000 C   0  0  0  0  0  0  0  0  0  0  0  0
    1.4289    7.4250    0.0000 C   0  0  0  0  0  0  0  0  0  0  0  0
    4.2868    4.9500    0.0000 C   0  0  0  0  0  0  0  0  0  0  0  0
    4.2868    6.6000    0.0000 C   0  0  0  0  0  0  0  0  0  0  0  0
    1.4289    4.9500    0.0000 C   0  0  0  0  0  0  0  0  0  0  0  0
    2.1434    5.3625    0.0000 C   0  0  0  0  0  0  0  0  0  0  0  0
   -2.1434    3.7125    0.0000 C   0  0  0  0  0  0  0  0  0  0  0  0
    0.0000    4.9500    0.0000 C   0  0  0  0  0  0  0  0  0  0  0  0
    0.7145    2.8875    0.0000 C   0  0  0  0  0  0  0  0  0  0  0  0
    0.7145    5.3625    0.0000 C   0  0  0  0  0  0  0  0  0  0  0  0
    0.7145    6.1875    0.0000 C   0  0  0  0  0  0  0  0  0  0  0  0
    1.4289    6.6000    0.0000 C   0  0  0  0  0  0  0  0  0  0  0  0
    3.5724    5.3625    0.0000 C   0  0  0  0  0  0  0  0  0  0  0  0
    0.0000    4.1250    0.0000 C   0  0  0  0  0  0  0  0  0  0  0  0
    3.5724    6.1875    0.0000 C   0  0  0  0  0  0  0  0  0  0  0  0
    2.1434    6.1875    0.0000 C   0  0  0  0  0  0  0  0  0  0  0  0
   -0.7145    3.7125    0.0000 C   0  0  0  0  0  0  0  0  0  0  0  0
    2.8579    7.4250    0.0000 C   0  0  0  0  0  0  0  0  0  0  0  0
    2.8579    4.9500    0.0000 C   0  0  0  0  0  0  0  0  0  0  0  0
    3.5724    7.8375    0.0000 C   0  0  0  0  0  0  0  0  0  0  0  0
   -1.4289    4.1250    0.0000 N   0  0  0  0  0  0  0  0  0  0  0  0
    0.7145    3.7125    0.0000 N   0  0  0  0  0  0  0  0  0  0  0  0
    2.8579    6.6000    0.0000 N   0  0  0  0  0  0  0  0  0  0  0  0
    1.4289    2.4750    0.0000 O   0  0  0  0  0  0  0  0  0  0  0  0
   -0.7145    2.8875    0.0000 O   0  0  0  0  0  0  0  0  0  0  0  0
    2.1434    7.8375    0.0000 O   0  0  0  0  0  0  0  0  0  0  0  0
    2.8579    4.1250    0.0000 O   0  0  0  0  0  0  0  0  0  0  0  0
    2.0374    4.8638    0.0000 O   0  0  0  0  0  0  0  0  0  0  0  0
    3.5724    8.6625    0.0000 O   0  0  0  0  0  0  0  0  0  0  0  0
    4.2868    7.4250    0.0000 O   0  0  0  0  0  0  0  0  0  0  0  0
  3  1  1  0
  4  3  1  0
  6  5  2  0
  8  7  2  0
  9  4  1  0
 10  5  1  0
 11  6  1  0
 12  7  1  0
 13  8  1  0
 15 14  1  0
 16  9  1  0
 18  2  1  0
 19 14  2  0
 19 17  1  0
 20 10  2  0
 20 19  1  0
 21 11  2  0
 21 20  1  0
 22 12  2  0
 23 17  1  6
 24 13  2  0
 24 22  1  0
 25 15  2  0
 25 21  1  0
 26 23  1  0
 28 22  1  0
 29 27  1  0
 30 16  1  0
 30 26  2  3
 31 18  2  3
 23 31  1  0
 32 24  1  0
 32 25  1  0
 32 27  1  0
 33 18  1  0
 34 26  1  0
 35 27  2  0
 36 28  2  0
 37 28  1  0
 38 29  1  0
 39 29  2  0
M  END
>  <ALOGPS_LOGP>  (101) 
3.04

>  <ALOGPS_LOGS>  (101) 
-5.52

>  <ALOGPS_SOLUBILITY>  (101) 
1.60e-03 g/l

>  <DATABASE_NAME>  (101) 
drugbank

>  <DRUGBANK_ID>  (101) 
DB01820

>  <DRUG_GROUPS>  (101) 
experimental

>  <EXACT_MASS>  (101) 
533.216200361

>  <FORMULA>  (101) 
C29H31N3O7

>  <GENERIC_NAME>  (101) 
Compound 12, N-Acetyl-4-[(Carboxycarbonyl)(2-Carboxyphenyl)Amino]-N-Pentyl-1-Napthylalaniamide

>  <ID>  (101) 


>  <INCHI_IDENTIFIER>  (101) 
InChI=1S/C29H31N3O7/c1-3-4-9-16-30-26(34)23(31-18(2)33)17-19-14-15-25(21-11-6-5-10-20(19)21)32(27(35)29(38)39)24-13-8-7-12-22(24)28(36)37/h5-8,10-15,23H,3-4,9,16-17H2,1-2H3,(H,30,34)(H,31,33)(H,36,37)(H,38,39)/t23-/m0/s1

>  <INCHI_KEY>  (101) 
UESXELNYBIOROE-QHCPKHFHSA-N

>  <INTERNATIONAL_BRANDS>  (101) 
nan

>  <JCHEM_ACCEPTOR_COUNT>  (101) 
9

>  <JCHEM_ATOM_COUNT>  (101) 
nan

>  <JCHEM_AVERAGE_POLARIZABILITY>  (101) 
55.37205514141381

>  <JCHEM_BIOAVAILABILITY>  (101) 
0

>  <JCHEM_DONOR_COUNT>  (101) 
4

>  <JCHEM_FORMAL_CHARGE>  (101) 
0

>  <JCHEM_GHOSE_FILTER>  (101) 
0

>  <JCHEM_IUPAC>  (101) 
2-(1-carboxy-N-{4-[(2S)-2-[(1-hydroxyethylidene)amino]-2-(pentyl-C-hydroxycarbonimidoyl)ethyl]naphthalen-1-yl}formamido)benzoic acid

>  <JCHEM_LOGP>  (101) 
3.2444596306998448

>  <JCHEM_MDDR_LIKE_RULE>  (101) 
1

>  <JCHEM_NUMBER_OF_RINGS>  (101) 
3

>  <JCHEM_PHYSIOLOGICAL_CHARGE>  (101) 
-1

>  <JCHEM_PKA>  (101) 
3.2961603698776853

>  <JCHEM_PKA_STRONGEST_ACIDIC>  (101) 
2.4711853026894732

>  <JCHEM_PKA_STRONGEST_BASIC>  (101) 
4.006218664229714

>  <JCHEM_POLAR_SURFACE_AREA>  (101) 
160.09

>  <JCHEM_REFRACTIVITY>  (101) 
144.05480000000006

>  <JCHEM_ROTATABLE_BOND_COUNT>  (101) 
12

>  <JCHEM_RULE_OF_FIVE>  (101) 
0

>  <JCHEM_TRADITIONAL_IUPAC>  (101) 
2-(1-carboxy-N-{4-[(2S)-2-[(1-hydroxyethylidene)amino]-2-(pentyl-C-hydroxycarbonimidoyl)ethyl]naphthalen-1-yl}formamido)benzoic acid

>  <JCHEM_VEBER_RULE>  (101) 
0

>  <MOLECULAR_WEIGHT>  (101) 
533.5723

>  <PRODUCTS>  (101) 
nan

>  <SALTS>  (101) 
nan

>  <SECONDARY_ACCESSION_NUMBERS>  (101) 
EXPT00349

>  <SMILES>  (101) 
[H][C@@](CC1=CC=C(N(C(=O)C(O)=O)C2=CC=CC=C2C(O)=O)C2=CC=CC=C12)(N=C(C)O)C(O)=NCCCCC

>  <SYNONYMS>  (101) 
nan

>  <ECFP_FP>  (101) 
<rdkit.DataStructs.cDataStructs.ExplicitBitVect object at 0xa266cbc60>

>  <pki_G>  (101) 
5.74992

>  <pki_D>  (101) 
5.756196

>  <pki_B>  (101) 
5.380737

>  <pki_A>  (101) 
5.544666

>  <SelB>  (101) 
0.369183

>  <SelA>  (101) 
0.205254

>  <SelD>  (101) 
-0.006276

>  <AvgABSel>  (101) 
0.287219

>  <MACCS_FP>  (101) 
[0. 0. 0. 0. 0. 0. 0. 0. 0. 0. 0. 0. 0. 0. 0. 0. 0. 0. 0. 0. 0. 0. 0. 0.
 0. 0. 0. 0. 0. 0. 0. 0. 0. 0. 0. 0. 0. 0. 0. 0. 0. 0. 0. 0. 0. 0. 0. 0.
 0. 0. 0. 0. 0. 0. 0. 0. 0. 0. 0. 0. 0. 0. 0. 0. 0. 0. 0. 0. 0. 0. 0. 0.
 1. 0. 0. 0. 0. 0. 1. 1. 0. 0. 0. 0. 0. 1. 0. 0. 0. 0. 1. 1. 1. 0. 0. 1.
 0. 1. 0. 0. 1. 1. 0. 0. 0. 1. 0. 0. 1. 0. 1. 1. 0. 0. 1. 1. 1. 1. 1. 1.
 0. 0. 1. 1. 0. 1. 0. 0. 1. 1. 0. 1. 0. 1. 0. 1. 1. 0. 0. 1. 1. 0. 1. 0.
 1. 1. 1. 1. 1. 1. 1. 0. 0. 1. 1. 1. 1. 1. 1. 1. 1. 1. 1. 1. 1. 1. 0.]

>  <MACCS_pki_G>  (101) 
6.045931

>  <MACCS_pki_D>  (101) 
5.783506

>  <MACCS_pki_B>  (101) 
5.510793

>  <MACCS_pki_A>  (101) 
5.803708

>  <MACCS_SelB>  (101) 
0.535138

>  <MACCS_SelA>  (101) 
0.242223

>  <MACCS_SelD>  (101) 
0.262425

>  <MACCSAvgABSel>  (101) 
0.388681

>  <Pharm2D_FP>  (101) 
[0. 0. 0. ... 0. 0. 0.]

>  <Pharm2D_pki_G>  (101) 
6.194255

>  <Pharm2D_pki_D>  (101) 
5.659755

>  <Pharm2D_pki_B>  (101) 
5.3545

>  <Pharm2D_pki_A>  (101) 
5.479092

>  <Pharm2D_SelB>  (101) 
0.839755

>  <Pharm2D_SelA>  (101) 
0.715163

>  <Pharm2D_SelD>  (101) 
0.534501

>  <Pharm2DAvgABSel>  (101) 
0.777459

>  <QED>  (101) 
0.112227

$$$$
DB15126
     RDKit          2D

 38 42  0  0  1  0  0  0  0  0999 V2000
    2.8579   -2.4750    0.0000 C   0  0  0  0  0  0  0  0  0  0  0  0
    3.5724   -2.8875    0.0000 N   0  0  0  0  0  0  0  0  0  0  0  0
    4.2868   -2.4750    0.0000 C   0  0  0  0  0  0  0  0  0  0  0  0
    5.0013   -2.8875    0.0000 C   0  0  0  0  0  0  0  0  0  0  0  0
    5.0013   -3.7125    0.0000 N   0  0  0  0  0  0  0  0  0  0  0  0
    4.2868   -4.1250    0.0000 C   0  0  0  0  0  0  0  0  0  0  0  0
    3.5724   -3.7125    0.0000 C   0  0  0  0  0  0  0  0  0  0  0  0
    5.7158   -4.1250    0.0000 C   0  0  0  0  0  0  0  0  0  0  0  0
    6.4302   -3.7125    0.0000 O   0  0  0  0  0  0  0  0  0  0  0  0
    5.7158   -4.9500    0.0000 C   0  0  0  0  0  0  0  0  0  0  0  0
    5.0013   -5.3625    0.0000 C   0  0  0  0  0  0  0  0  0  0  0  0
    4.2868   -4.9500    0.0000 C   0  0  0  0  0  0  0  0  0  0  0  0
    3.5724   -5.3625    0.0000 C   0  0  0  0  0  0  0  0  0  0  0  0
    2.8579   -4.9500    0.0000 N   0  0  0  0  0  0  0  0  0  0  0  0
    2.1434   -5.3625    0.0000 C   0  0  0  0  0  0  0  0  0  0  0  0
    1.7309   -6.0770    0.0000 C   0  0  0  0  0  0  0  0  0  0  0  0
    1.3184   -5.3625    0.0000 C   0  0  0  0  0  0  0  0  0  0  0  0
    0.6039   -4.9500    0.0000 C   0  0  0  0  0  0  0  0  0  0  0  0
   -0.1105   -5.3625    0.0000 C   0  0  0  0  0  0  0  0  0  0  0  0
   -0.8250   -4.9500    0.0000 C   0  0  0  0  0  0  0  0  0  0  0  0
   -0.8250   -4.1250    0.0000 C   0  0  0  0  0  0  0  0  0  0  0  0
   -1.5395   -3.7125    0.0000 F   0  0  0  0  0  0  0  0  0  0  0  0
   -0.1105   -3.7125    0.0000 C   0  0  0  0  0  0  0  0  0  0  0  0
    0.6039   -4.1250    0.0000 C   0  0  0  0  0  0  0  0  0  0  0  0
    6.4302   -5.3625    0.0000 N   0  0  0  0  0  0  0  0  0  0  0  0
    7.1447   -4.9500    0.0000 C   0  0  0  0  0  0  0  0  0  0  0  0
    7.1447   -4.1250    0.0000 O   0  0  0  0  0  0  0  0  0  0  0  0
    7.8592   -5.3625    0.0000 C   0  0  0  0  0  0  0  0  0  0  0  0
    8.5737   -4.9500    0.0000 C   0  0  0  0  0  0  0  0  0  0  0  0
    9.2881   -5.3625    0.0000 C   0  0  0  0  0  0  0  0  0  0  0  0
    9.2881   -6.1875    0.0000 C   0  0  0  0  0  0  0  0  0  0  0  0
    8.5737   -6.6000    0.0000 C   0  0  0  0  0  0  0  0  0  0  0  0
    7.8592   -6.1875    0.0000 C   0  0  0  0  0  0  0  0  0  0  0  0
   10.0026   -6.6000    0.0000 N   0  0  0  0  0  0  0  0  0  0  0  0
   10.7563   -6.2644    0.0000 C   0  0  0  0  0  0  0  0  0  0  0  0
   11.3083   -6.8775    0.0000 C   0  0  0  0  0  0  0  0  0  0  0  0
   10.8958   -7.5920    0.0000 N   0  0  0  0  0  0  0  0  0  0  0  0
   10.0888   -7.4205    0.0000 N   0  0  0  0  0  0  0  0  0  0  0  0
  1  2  1  0
  2  3  1  0
  3  4  1  0
  4  5  1  0
  5  6  1  0
  6  7  1  0
  2  7  1  0
  5  8  1  0
  8  9  2  0
 10  8  1  0
 10 11  1  1
 11 12  1  0
 12 13  1  0
 13 14  1  0
 15 14  1  6
 15 16  1  0
 17 16  1  0
 15 17  1  0
 17 18  1  1
 18 19  2  0
 19 20  1  0
 20 21  2  0
 21 22  1  0
 21 23  1  0
 23 24  2  0
 18 24  1  0
 10 25  1  0
 25 26  1  0
 26 27  2  0
 26 28  1  0
 28 29  2  0
 29 30  1  0
 30 31  2  0
 31 32  1  0
 32 33  2  0
 28 33  1  0
 31 34  1  0
 34 35  1  0
 35 36  2  0
 36 37  1  0
 37 38  2  0
 34 38  1  0
M  END
>  <ALOGPS_LOGP>  (102) 
1.61

>  <ALOGPS_LOGS>  (102) 
-4.14

>  <ALOGPS_SOLUBILITY>  (102) 
3.76e-02 g/l

>  <DATABASE_NAME>  (102) 
drugbank

>  <DRUGBANK_ID>  (102) 
DB15126

>  <DRUG_GROUPS>  (102) 
investigational

>  <EXACT_MASS>  (102) 
519.275801526

>  <FORMULA>  (102) 
C28H34FN7O2

>  <GENERIC_NAME>  (102) 
IMG-7289

>  <ID>  (102) 


>  <INCHI_IDENTIFIER>  (102) 
InChI=1S/C28H34FN7O2/c1-34-15-17-35(18-16-34)28(38)25(3-2-12-30-26-19-24(26)20-4-8-22(29)9-5-20)32-27(37)21-6-10-23(11-7-21)36-14-13-31-33-36/h4-11,13-14,24-26,30H,2-3,12,15-19H2,1H3,(H,32,37)/t24-,25-,26+/m0/s1

>  <INCHI_KEY>  (102) 
KQKBMHGOHXOHTD-KKUQBAQOSA-N

>  <INTERNATIONAL_BRANDS>  (102) 
nan

>  <JCHEM_ACCEPTOR_COUNT>  (102) 
6

>  <JCHEM_ATOM_COUNT>  (102) 
72

>  <JCHEM_AVERAGE_POLARIZABILITY>  (102) 
56.504450118229705

>  <JCHEM_BIOAVAILABILITY>  (102) 
1

>  <JCHEM_DONOR_COUNT>  (102) 
2

>  <JCHEM_FORMAL_CHARGE>  (102) 
0

>  <JCHEM_GHOSE_FILTER>  (102) 
0

>  <JCHEM_IUPAC>  (102) 
N-[(2S)-5-{[(1R,2S)-2-(4-fluorophenyl)cyclopropyl]amino}-1-(4-methylpiperazin-1-yl)-1-oxopentan-2-yl]-4-(1H-1,2,3-triazol-1-yl)benzamide

>  <JCHEM_LOGP>  (102) 
2.249935800666666

>  <JCHEM_MDDR_LIKE_RULE>  (102) 
1

>  <JCHEM_NUMBER_OF_RINGS>  (102) 
5

>  <JCHEM_PHYSIOLOGICAL_CHARGE>  (102) 
2

>  <JCHEM_PKA>  (102) 
18.257221028722988

>  <JCHEM_PKA_STRONGEST_ACIDIC>  (102) 
15.219097235787782

>  <JCHEM_PKA_STRONGEST_BASIC>  (102) 
9.34222554186219

>  <JCHEM_POLAR_SURFACE_AREA>  (102) 
95.39000000000001

>  <JCHEM_REFRACTIVITY>  (102) 
144.47599999999997

>  <JCHEM_ROTATABLE_BOND_COUNT>  (102) 
10

>  <JCHEM_RULE_OF_FIVE>  (102) 
0

>  <JCHEM_TRADITIONAL_IUPAC>  (102) 
(2R)-14-fluoro-2-methyl-6,9,10,19-tetraazapentacyclo[14.2.1.0^{2,6}.0^{8,18}.0^{12,17}]nonadeca-1(18),8,12(17),13,15-pentaen-11-one

>  <JCHEM_VEBER_RULE>  (102) 
0

>  <MOLECULAR_WEIGHT>  (102) 
519.625

>  <PRODUCTS>  (102) 
nan

>  <SALTS>  (102) 
nan

>  <SECONDARY_ACCESSION_NUMBERS>  (102) 
nan

>  <SMILES>  (102) 
CN1CCN(CC1)C(=O)[C@H](CCCN[C@@H]1C[C@H]1C1=CC=C(F)C=C1)NC(=O)C1=CC=C(C=C1)N1C=CN=N1

>  <SYNONYMS>  (102) 
nan

>  <ECFP_FP>  (102) 
<rdkit.DataStructs.cDataStructs.ExplicitBitVect object at 0xa26d54ad0>

>  <pki_G>  (102) 
5.74785

>  <pki_D>  (102) 
5.774462

>  <pki_B>  (102) 
5.398832

>  <pki_A>  (102) 
5.667921

>  <SelB>  (102) 
0.349018

>  <SelA>  (102) 
0.079929

>  <SelD>  (102) 
-0.026612

>  <AvgABSel>  (102) 
0.214473

>  <MACCS_FP>  (102) 
[0. 0. 0. 0. 0. 0. 0. 0. 0. 0. 0. 0. 0. 0. 0. 0. 0. 0. 0. 0. 0. 0. 1. 0.
 0. 0. 0. 0. 0. 0. 0. 0. 0. 0. 0. 0. 0. 0. 0. 0. 0. 0. 1. 0. 0. 0. 0. 0.
 0. 0. 0. 0. 1. 0. 0. 0. 0. 0. 0. 0. 0. 0. 1. 0. 0. 1. 0. 0. 0. 0. 1. 0.
 0. 0. 0. 1. 0. 1. 0. 1. 1. 0. 1. 1. 0. 1. 1. 1. 0. 0. 1. 1. 1. 1. 1. 1.
 1. 0. 1. 0. 1. 0. 0. 0. 1. 0. 0. 1. 0. 0. 1. 1. 0. 0. 0. 1. 1. 1. 1. 0.
 1. 1. 1. 0. 1. 1. 0. 0. 1. 1. 1. 1. 0. 1. 1. 1. 1. 1. 1. 0. 0. 0. 1. 0.
 0. 1. 0. 1. 1. 0. 1. 1. 0. 1. 1. 1. 1. 0. 1. 1. 1. 1. 1. 1. 1. 1. 0.]

>  <MACCS_pki_G>  (102) 
6.187479

>  <MACCS_pki_D>  (102) 
6.041644

>  <MACCS_pki_B>  (102) 
5.402467

>  <MACCS_pki_A>  (102) 
5.829327

>  <MACCS_SelB>  (102) 
0.785012

>  <MACCS_SelA>  (102) 
0.358151

>  <MACCS_SelD>  (102) 
0.145835

>  <MACCSAvgABSel>  (102) 
0.571582

>  <Pharm2D_FP>  (102) 
[0. 0. 0. ... 0. 0. 0.]

>  <Pharm2D_pki_G>  (102) 
6.300185

>  <Pharm2D_pki_D>  (102) 
5.696537

>  <Pharm2D_pki_B>  (102) 
5.647954

>  <Pharm2D_pki_A>  (102) 
5.669175

>  <Pharm2D_SelB>  (102) 
0.652231

>  <Pharm2D_SelA>  (102) 
0.63101

>  <Pharm2D_SelD>  (102) 
0.603648

>  <Pharm2DAvgABSel>  (102) 
0.641621

>  <QED>  (102) 
0.399082

$$$$
DB02030
     RDKit          2D

 24 26  0  0  1  0  0  0  0  0999 V2000
   13.4713  -10.2244    0.0000 N   0  0  0  0  0  0  0  0  0  0  0  0
   12.7510   -9.8058    0.0000 C   0  0  0  0  0  0  0  0  0  0  0  0
   12.7398  -11.3031    0.0000 C   0  0  0  0  0  0  0  0  0  0  0  0
   14.1880   -9.8058    0.0000 C   0  0  0  0  0  0  0  0  0  0  0  0
   12.7510   -8.9798    0.0000 C   0  0  0  0  0  0  0  0  0  0  0  0
   12.0344  -10.2281    0.0000 C   0  0  0  0  0  0  0  0  0  0  0  0
   12.0685  -10.8240    0.0000 O   0  0  0  0  0  0  0  0  0  0  0  0
   12.4833  -12.0875    0.0000 C   0  0  0  0  0  0  0  0  0  0  0  0
   14.1880   -8.9798    0.0000 N   0  0  0  0  0  0  0  0  0  0  0  0
   12.0344   -8.5687    0.0000 C   0  0  0  0  0  0  0  0  0  0  0  0
   11.3215   -9.8058    0.0000 C   0  0  0  0  0  0  0  0  0  0  0  0
   11.4122  -11.3031    0.0000 C   0  0  0  0  0  0  0  0  0  0  0  0
   11.6611  -12.0875    0.0000 C   0  0  0  0  0  0  0  0  0  0  0  0
   12.9660  -12.7476    0.0000 O   0  0  0  0  0  0  0  0  0  0  0  0
   11.3215   -8.9798    0.0000 C   0  0  0  0  0  0  0  0  0  0  0  0
   10.6955  -10.2131    0.0000 C   0  0  0  0  0  0  0  0  0  0  0  0
   10.6314  -11.0428    0.0000 C   0  0  0  0  0  0  0  0  0  0  0  0
   11.1744  -12.7476    0.0000 O   0  0  0  0  0  0  0  0  0  0  0  0
   10.6558   -8.5687    0.0000 C   0  0  0  0  0  0  0  0  0  0  0  0
    9.8733  -11.5840    0.0000 O   0  0  0  0  0  0  0  0  0  0  0  0
    9.0473  -11.5764    0.0000 P   0  0  0  0  0  0  0  0  0  0  0  0
    8.2289  -11.5764    0.0000 O   0  0  0  0  0  0  0  0  0  0  0  0
    9.0510  -10.7580    0.0000 O   0  0  0  0  0  0  0  0  0  0  0  0
    9.0435  -12.3986    0.0000 O   0  0  0  0  0  0  0  0  0  0  0  0
  1  2  1  0
  3  1  1  6
  1  4  1  0
  2  5  2  0
  2  6  1  0
  3  7  1  0
  3  8  1  0
  4  9  2  0
  5 10  1  0
  6 11  2  0
  7 12  1  0
  8 13  1  0
  8 14  1  6
 10 15  2  0
 11 16  1  0
 12 17  1  1
 13 18  1  6
 15 19  1  0
 17 20  1  0
 20 21  1  0
 21 22  1  0
 21 23  1  0
 21 24  2  0
  5  9  1  0
 11 15  1  0
 12 13  1  0
M  END
>  <ALOGPS_LOGP>  (103) 
-0.32

>  <ALOGPS_LOGS>  (103) 
-2.37

>  <ALOGPS_SOLUBILITY>  (103) 
1.53e+00 g/l

>  <DATABASE_NAME>  (103) 
drugbank

>  <DRUGBANK_ID>  (103) 
DB02030

>  <DRUG_GROUPS>  (103) 
experimental

>  <EXACT_MASS>  (103) 
358.092987484

>  <FORMULA>  (103) 
C14H19N2O7P

>  <GENERIC_NAME>  (103) 
Alpha-Ribazole-5'-Phosphate

>  <ID>  (103) 


>  <INCHI_IDENTIFIER>  (103) 
InChI=1S/C14H19N2O7P/c1-7-3-9-10(4-8(7)2)16(6-15-9)14-13(18)12(17)11(23-14)5-22-24(19,20)21/h3-4,6,11-14,17-18H,5H2,1-2H3,(H2,19,20,21)/t11-,12-,13-,14+/m1/s1

>  <INCHI_KEY>  (103) 
ZMRGXEJKZPRBPJ-SYQHCUMBSA-N

>  <INTERNATIONAL_BRANDS>  (103) 
nan

>  <JCHEM_ACCEPTOR_COUNT>  (103) 
7

>  <JCHEM_ATOM_COUNT>  (103) 
nan

>  <JCHEM_AVERAGE_POLARIZABILITY>  (103) 
34.12708648100771

>  <JCHEM_BIOAVAILABILITY>  (103) 
1

>  <JCHEM_DONOR_COUNT>  (103) 
4

>  <JCHEM_FORMAL_CHARGE>  (103) 
0

>  <JCHEM_GHOSE_FILTER>  (103) 
0

>  <JCHEM_IUPAC>  (103) 
{[(2R,3S,4R,5S)-5-(5,6-dimethyl-1H-1,3-benzodiazol-1-yl)-3,4-dihydroxyoxolan-2-yl]methoxy}phosphonic acid

>  <JCHEM_LOGP>  (103) 
-1.513658450999334

>  <JCHEM_MDDR_LIKE_RULE>  (103) 
0

>  <JCHEM_NUMBER_OF_RINGS>  (103) 
3

>  <JCHEM_PHYSIOLOGICAL_CHARGE>  (103) 
-2

>  <JCHEM_PKA>  (103) 
6.44340389593101

>  <JCHEM_PKA_STRONGEST_ACIDIC>  (103) 
1.2246976829386815

>  <JCHEM_PKA_STRONGEST_BASIC>  (103) 
5.805156458191586

>  <JCHEM_POLAR_SURFACE_AREA>  (103) 
134.27

>  <JCHEM_REFRACTIVITY>  (103) 
82.5201

>  <JCHEM_ROTATABLE_BOND_COUNT>  (103) 
4

>  <JCHEM_RULE_OF_FIVE>  (103) 
1

>  <JCHEM_TRADITIONAL_IUPAC>  (103) 
α-ribazole-5'-P

>  <JCHEM_VEBER_RULE>  (103) 
0

>  <MOLECULAR_WEIGHT>  (103) 
358.2836

>  <PRODUCTS>  (103) 
nan

>  <SALTS>  (103) 
nan

>  <SECONDARY_ACCESSION_NUMBERS>  (103) 
EXPT02761

>  <SMILES>  (103) 
CC1=CC2=C(C=C1C)N(C=N2)[C@H]1O[C@H](COP(O)(O)=O)[C@@H](O)[C@H]1O

>  <SYNONYMS>  (103) 
nan

>  <ECFP_FP>  (103) 
<rdkit.DataStructs.cDataStructs.ExplicitBitVect object at 0xa266ec990>

>  <pki_G>  (103) 
5.743666

>  <pki_D>  (103) 
5.632323

>  <pki_B>  (103) 
5.371863

>  <pki_A>  (103) 
5.201873

>  <SelB>  (103) 
0.371802

>  <SelA>  (103) 
0.541793

>  <SelD>  (103) 
0.111342

>  <AvgABSel>  (103) 
0.456798

>  <MACCS_FP>  (103) 
[0. 0. 0. 0. 0. 0. 0. 0. 0. 0. 0. 0. 0. 0. 0. 0. 0. 0. 0. 0. 0. 0. 0. 0.
 0. 0. 0. 0. 0. 1. 0. 0. 0. 0. 0. 0. 0. 0. 0. 0. 0. 0. 0. 1. 0. 0. 0. 0.
 1. 0. 0. 0. 0. 0. 1. 0. 0. 1. 0. 0. 0. 0. 1. 0. 0. 1. 0. 0. 0. 1. 0. 0.
 1. 0. 0. 1. 0. 1. 0. 1. 0. 0. 0. 1. 0. 1. 0. 0. 0. 1. 1. 1. 1. 0. 0. 1.
 1. 1. 0. 0. 0. 1. 1. 0. 0. 1. 1. 0. 0. 1. 1. 0. 1. 0. 0. 0. 0. 1. 0. 0.
 1. 1. 1. 0. 1. 1. 1. 1. 0. 0. 1. 1. 1. 1. 0. 0. 0. 1. 0. 1. 1. 0. 1. 1.
 1. 0. 1. 0. 1. 1. 1. 0. 1. 1. 0. 1. 1. 1. 1. 1. 1. 1. 1. 1. 1. 1. 0.]

>  <MACCS_pki_G>  (103) 
6.347238

>  <MACCS_pki_D>  (103) 
5.713363

>  <MACCS_pki_B>  (103) 
5.598583

>  <MACCS_pki_A>  (103) 
5.523333

>  <MACCS_SelB>  (103) 
0.748654

>  <MACCS_SelA>  (103) 
0.823904

>  <MACCS_SelD>  (103) 
0.633875

>  <MACCSAvgABSel>  (103) 
0.786279

>  <Pharm2D_FP>  (103) 
[0. 0. 0. ... 0. 0. 0.]

>  <Pharm2D_pki_G>  (103) 
5.706023

>  <Pharm2D_pki_D>  (103) 
5.751753

>  <Pharm2D_pki_B>  (103) 
5.538513

>  <Pharm2D_pki_A>  (103) 
5.564886

>  <Pharm2D_SelB>  (103) 
0.167509

>  <Pharm2D_SelA>  (103) 
0.141137

>  <Pharm2D_SelD>  (103) 
-0.04573

>  <Pharm2DAvgABSel>  (103) 
0.154323

>  <QED>  (103) 
0.576502

$$$$
DB08275
     RDKit          2D

 26 26  0  0  0  0  0  0  0  0999 V2000
    2.8756    0.8210    0.0000 N   0  0  0  0  0  0  0  0  0  0  0  0
    2.2340    0.3023    0.0000 C   0  0  0  0  0  0  0  0  0  0  0  0
    2.3623   -0.5126    0.0000 O   0  0  0  0  0  0  0  0  0  0  0  0
    1.4640    0.5987    0.0000 C   0  0  0  0  0  0  0  0  0  0  0  0
    0.8224    0.0801    0.0000 C   0  0  0  0  0  0  0  0  0  0  0  0
    0.0525    0.3764    0.0000 C   0  0  0  0  0  0  0  0  0  0  0  0
   -0.5891   -0.1422    0.0000 C   0  0  0  0  0  0  0  0  0  0  0  0
   -1.3591    0.1542    0.0000 C   0  0  0  0  0  0  0  0  0  0  0  0
   -2.0007   -0.3644    0.0000 C   0  0  0  0  0  0  0  0  0  0  0  0
   -2.7706   -0.0681    0.0000 C   0  0  0  0  0  0  0  0  0  0  0  0
   -3.4122   -0.5867    0.0000 C   0  0  0  0  0  0  0  0  0  0  0  0
   -4.1822   -0.2904    0.0000 C   0  0  0  0  0  0  0  0  0  0  0  0
   -4.8238   -0.8090    0.0000 C   0  0  0  0  0  0  0  0  0  0  0  0
   -5.5937   -0.5126    0.0000 C   0  0  0  0  0  0  0  0  0  0  0  0
    3.6455    0.5246    0.0000 C   0  0  0  0  0  0  0  0  0  0  0  0
    4.2871    1.0432    0.0000 C   0  0  0  0  0  0  0  0  0  0  0  0
    5.0571    0.7469    0.0000 C   0  0  0  0  0  0  0  0  0  0  0  0
    5.6987    1.2655    0.0000 C   0  0  0  0  0  0  0  0  0  0  0  0
    6.4686    0.9691    0.0000 C   0  0  0  0  0  0  0  0  0  0  0  0
    6.5969    0.1542    0.0000 C   0  0  0  0  0  0  0  0  0  0  0  0
    5.9553   -0.3644    0.0000 C   0  0  0  0  0  0  0  0  0  0  0  0
    5.1854   -0.0681    0.0000 C   0  0  0  0  0  0  0  0  0  0  0  0
    7.3669   -0.1422    0.0000 O   0  0  0  0  0  0  0  0  0  0  0  0
    3.7738   -0.2904    0.0000 C   0  0  0  0  0  0  0  0  0  0  0  0
    4.5438   -0.5867    0.0000 O   0  0  0  0  0  0  0  0  0  0  0  0
    3.1322   -0.8090    0.0000 O   0  0  0  0  0  0  0  0  0  0  0  0
  1  2  1  0
 15  1  1  0
  2  3  2  0
  2  4  1  0
  4  5  1  0
  5  6  1  0
  6  7  1  0
  7  8  1  0
  8  9  1  0
  9 10  1  0
 10 11  1  0
 11 12  1  0
 12 13  1  0
 13 14  1  0
 15 16  1  1
 15 24  1  0
 16 17  1  0
 17 18  2  0
 17 22  1  0
 18 19  1  0
 19 20  2  0
 20 21  1  0
 20 23  1  0
 21 22  2  0
 24 25  1  0
 24 26  2  0
M  END
>  <ALOGPS_LOGP>  (104) 
4.9

>  <ALOGPS_LOGS>  (104) 
-4.93

>  <ALOGPS_SOLUBILITY>  (104) 
4.27e-03 g/l

>  <DATABASE_NAME>  (104) 
drugbank

>  <DRUGBANK_ID>  (104) 
DB08275

>  <DRUG_GROUPS>  (104) 
experimental

>  <EXACT_MASS>  (104) 
363.240958549

>  <FORMULA>  (104) 
C21H33NO4

>  <GENERIC_NAME>  (104) 
N-DODECANOYL-L-TYROSINE

>  <ID>  (104) 
NLT

>  <INCHI_IDENTIFIER>  (104) 
InChI=1S/C21H33NO4/c1-2-3-4-5-6-7-8-9-10-11-20(24)22-19(21(25)26)16-17-12-14-18(23)15-13-17/h12-15,19,23H,2-11,16H2,1H3,(H,22,24)(H,25,26)/t19-/m0/s1

>  <INCHI_KEY>  (104) 
SVQAZCRYIXURJT-IBGZPJMESA-N

>  <INTERNATIONAL_BRANDS>  (104) 
nan

>  <JCHEM_ACCEPTOR_COUNT>  (104) 
4

>  <JCHEM_ATOM_COUNT>  (104) 
nan

>  <JCHEM_AVERAGE_POLARIZABILITY>  (104) 
42.35701478337456

>  <JCHEM_BIOAVAILABILITY>  (104) 
0

>  <JCHEM_DONOR_COUNT>  (104) 
3

>  <JCHEM_FORMAL_CHARGE>  (104) 
0

>  <JCHEM_GHOSE_FILTER>  (104) 
1

>  <JCHEM_IUPAC>  (104) 
(2S)-2-dodecanamido-3-(4-hydroxyphenyl)propanoic acid

>  <JCHEM_LOGP>  (104) 
5.294550166333335

>  <JCHEM_MDDR_LIKE_RULE>  (104) 
0

>  <JCHEM_NUMBER_OF_RINGS>  (104) 
1

>  <JCHEM_PHYSIOLOGICAL_CHARGE>  (104) 
-1

>  <JCHEM_PKA>  (104) 
9.504648221090806

>  <JCHEM_PKA_STRONGEST_ACIDIC>  (104) 
3.847842263519673

>  <JCHEM_PKA_STRONGEST_BASIC>  (104) 
-0.7817555743407695

>  <JCHEM_POLAR_SURFACE_AREA>  (104) 
86.63

>  <JCHEM_REFRACTIVITY>  (104) 
102.57689999999998

>  <JCHEM_ROTATABLE_BOND_COUNT>  (104) 
14

>  <JCHEM_RULE_OF_FIVE>  (104) 
0

>  <JCHEM_TRADITIONAL_IUPAC>  (104) 
N-dodecanoyl-L-tyrosine

>  <JCHEM_VEBER_RULE>  (104) 
0

>  <MOLECULAR_WEIGHT>  (104) 
363.491

>  <PRODUCTS>  (104) 
nan

>  <SALTS>  (104) 
nan

>  <SECONDARY_ACCESSION_NUMBERS>  (104) 
nan

>  <SMILES>  (104) 
[H][C@@](CC1=CC=C(O)C=C1)(NC(=O)CCCCCCCCCCC)C(O)=O

>  <SYNONYMS>  (104) 
nan

>  <ECFP_FP>  (104) 
<rdkit.DataStructs.cDataStructs.ExplicitBitVect object at 0xa26b0a6c0>

>  <pki_G>  (104) 
5.734883

>  <pki_D>  (104) 
5.808723

>  <pki_B>  (104) 
5.372999

>  <pki_A>  (104) 
5.785111

>  <SelB>  (104) 
0.361884

>  <SelA>  (104) 
-0.050229

>  <SelD>  (104) 
-0.07384

>  <AvgABSel>  (104) 
0.155828

>  <MACCS_FP>  (104) 
[0. 0. 0. 0. 0. 0. 0. 0. 0. 0. 0. 0. 0. 0. 0. 0. 0. 0. 0. 0. 0. 0. 0. 0.
 0. 0. 0. 0. 0. 0. 0. 0. 0. 0. 0. 0. 0. 0. 0. 0. 0. 0. 0. 0. 0. 0. 0. 0.
 0. 0. 0. 0. 0. 0. 1. 0. 0. 0. 0. 0. 0. 0. 0. 0. 0. 0. 0. 0. 0. 0. 0. 0.
 0. 0. 0. 0. 0. 0. 0. 0. 0. 0. 0. 0. 0. 0. 0. 0. 0. 0. 1. 1. 1. 0. 0. 1.
 0. 0. 0. 0. 0. 0. 0. 0. 1. 0. 0. 0. 1. 0. 1. 1. 0. 1. 1. 1. 1. 1. 1. 0.
 0. 0. 0. 1. 0. 0. 0. 1. 1. 1. 0. 1. 1. 0. 0. 0. 1. 0. 0. 1. 1. 0. 0. 1.
 0. 0. 1. 1. 0. 0. 0. 1. 1. 0. 1. 1. 1. 1. 1. 1. 1. 1. 1. 1. 1. 1. 0.]

>  <MACCS_pki_G>  (104) 
5.879727

>  <MACCS_pki_D>  (104) 
5.76495

>  <MACCS_pki_B>  (104) 
5.526374

>  <MACCS_pki_A>  (104) 
5.806143

>  <MACCS_SelB>  (104) 
0.353352

>  <MACCS_SelA>  (104) 
0.073584

>  <MACCS_SelD>  (104) 
0.114777

>  <MACCSAvgABSel>  (104) 
0.213468

>  <Pharm2D_FP>  (104) 
[0. 0. 0. ... 0. 0. 0.]

>  <Pharm2D_pki_G>  (104) 
6.042467

>  <Pharm2D_pki_D>  (104) 
5.472782

>  <Pharm2D_pki_B>  (104) 
5.367192

>  <Pharm2D_pki_A>  (104) 
5.442112

>  <Pharm2D_SelB>  (104) 
0.675275

>  <Pharm2D_SelA>  (104) 
0.600355

>  <Pharm2D_SelD>  (104) 
0.569685

>  <Pharm2DAvgABSel>  (104) 
0.637815

>  <QED>  (104) 
0.426923

$$$$
DB15292
     RDKit          2D

 30 34  0  0  0  0  0  0  0  0999 V2000
    5.4957   -3.9979    0.0000 O   0  0  0  0  0  0  0  0  0  0  0  0
    5.4957   -4.8229    0.0000 N   0  0  0  0  0  0  0  0  0  0  0  0
    4.7812   -5.2354    0.0000 C   0  0  0  0  0  0  0  0  0  0  0  0
    4.0668   -4.8229    0.0000 C   0  0  0  0  0  0  0  0  0  0  0  0
    3.3523   -5.2354    0.0000 C   0  0  0  0  0  0  0  0  0  0  0  0
    3.3523   -6.0604    0.0000 O   0  0  0  0  0  0  0  0  0  0  0  0
    4.0668   -6.4729    0.0000 C   0  0  0  0  0  0  0  0  0  0  0  0
    4.7812   -6.0604    0.0000 C   0  0  0  0  0  0  0  0  0  0  0  0
    5.4957   -6.4729    0.0000 C   0  0  0  0  0  0  0  0  0  0  0  0
    5.4957   -7.2979    0.0000 C   0  0  0  0  0  0  0  0  0  0  0  0
    6.2102   -7.7104    0.0000 C   0  0  0  0  0  0  0  0  0  0  0  0
    6.2102   -8.5354    0.0000 C   0  0  0  0  0  0  0  0  0  0  0  0
    6.9246   -8.9479    0.0000 C   0  0  0  0  0  0  0  0  0  0  0  0
    6.9246   -9.7729    0.0000 N   0  0  0  0  0  0  0  0  0  0  0  0
    7.6391  -10.1854    0.0000 C   0  0  0  0  0  0  0  0  0  0  0  0
    7.6391  -11.0104    0.0000 C   0  0  0  0  0  0  0  0  0  0  0  0
    6.9246  -11.4229    0.0000 O   0  0  0  0  0  0  0  0  0  0  0  0
    6.2102  -11.0104    0.0000 C   0  0  0  0  0  0  0  0  0  0  0  0
    6.2102  -10.1854    0.0000 C   0  0  0  0  0  0  0  0  0  0  0  0
    4.7812   -7.7104    0.0000 C   0  0  0  0  0  0  0  0  0  0  0  0
    4.0668   -7.2979    0.0000 C   0  0  0  0  0  0  0  0  0  0  0  0
    2.6378   -4.8229    0.0000 C   0  0  0  0  0  0  0  0  0  0  0  0
    1.9233   -5.2354    0.0000 C   0  0  0  0  0  0  0  0  0  0  0  0
    1.2089   -4.8229    0.0000 C   0  0  0  0  0  0  0  0  0  0  0  0
    1.2089   -3.9979    0.0000 C   0  0  0  0  0  0  0  0  0  0  0  0
    0.4243   -3.7430    0.0000 C   0  0  0  0  0  0  0  0  0  0  0  0
   -0.0607   -4.4104    0.0000 C   0  0  0  0  0  0  0  0  0  0  0  0
    0.4243   -5.0779    0.0000 S   0  0  0  0  0  0  0  0  0  0  0  0
    1.9233   -3.5854    0.0000 C   0  0  0  0  0  0  0  0  0  0  0  0
    2.6378   -3.9979    0.0000 N   0  0  0  0  0  0  0  0  0  0  0  0
  1  2  1  0
  2  3  2  0
  3  4  1  0
  4  5  2  0
  5  6  1  0
  6  7  1  0
  7  8  2  0
  3  8  1  0
  8  9  1  0
  9 10  2  0
 10 11  1  0
 11 12  1  0
 12 13  1  0
 13 14  1  0
 14 15  1  0
 15 16  1  0
 16 17  1  0
 17 18  1  0
 18 19  1  0
 14 19  1  0
 10 20  1  0
 20 21  2  0
  7 21  1  0
  5 22  1  0
 22 23  2  0
 23 24  1  0
 24 25  2  0
 25 26  1  0
 26 27  2  0
 27 28  1  0
 24 28  1  0
 25 29  1  0
 29 30  2  0
 22 30  1  0
M  END
>  <ALOGPS_LOGP>  (105) 
3.93

>  <ALOGPS_LOGS>  (105) 
-4.83

>  <ALOGPS_SOLUBILITY>  (105) 
6.21e-03 g/l

>  <DATABASE_NAME>  (105) 
drugbank

>  <DRUGBANK_ID>  (105) 
DB15292

>  <DRUG_GROUPS>  (105) 
investigational

>  <EXACT_MASS>  (105) 
421.146012787

>  <FORMULA>  (105) 
C23H23N3O3S

>  <GENERIC_NAME>  (105) 
Foliglurax

>  <ID>  (105) 


>  <INCHI_IDENTIFIER>  (105) 
InChI=1S/C23H23N3O3S/c27-25-19-13-22(20-14-23-17(15-24-20)5-11-30-23)29-21-4-3-16(12-18(19)21)2-1-6-26-7-9-28-10-8-26/h3-5,11-15,27H,1-2,6-10H2/b25-19+

>  <INCHI_KEY>  (105) 
ZTEDNASHAWNBKQ-NCELDCMTSA-N

>  <INTERNATIONAL_BRANDS>  (105) 
nan

>  <JCHEM_ACCEPTOR_COUNT>  (105) 
6

>  <JCHEM_ATOM_COUNT>  (105) 
53

>  <JCHEM_AVERAGE_POLARIZABILITY>  (105) 
46.898432724711

>  <JCHEM_BIOAVAILABILITY>  (105) 
1

>  <JCHEM_DONOR_COUNT>  (105) 
1

>  <JCHEM_FORMAL_CHARGE>  (105) 
0

>  <JCHEM_GHOSE_FILTER>  (105) 
1

>  <JCHEM_IUPAC>  (105) 
N-[(4E)-6-[3-(morpholin-4-yl)propyl]-2-{thieno[3,2-c]pyridin-6-yl}-4H-chromen-4-ylidene]hydroxylamine

>  <JCHEM_LOGP>  (105) 
2.0078212982454238

>  <JCHEM_MDDR_LIKE_RULE>  (105) 
0

>  <JCHEM_NUMBER_OF_RINGS>  (105) 
5

>  <JCHEM_PHYSIOLOGICAL_CHARGE>  (105) 
0

>  <JCHEM_PKA>  (105) 
nan

>  <JCHEM_PKA_STRONGEST_ACIDIC>  (105) 
5.231929318590269

>  <JCHEM_PKA_STRONGEST_BASIC>  (105) 
7.4689071704621

>  <JCHEM_POLAR_SURFACE_AREA>  (105) 
67.18

>  <JCHEM_REFRACTIVITY>  (105) 
118.57730000000001

>  <JCHEM_ROTATABLE_BOND_COUNT>  (105) 
5

>  <JCHEM_RULE_OF_FIVE>  (105) 
1

>  <JCHEM_TRADITIONAL_IUPAC>  (105) 
(2R)-14-fluoro-2-methyl-6,9,10,19-tetraazapentacyclo[14.2.1.0^{2,6}.0^{8,18}.0^{12,17}]nonadeca-1(18),8,12(17),13,15-pentaen-11-one

>  <JCHEM_VEBER_RULE>  (105) 
0

>  <MOLECULAR_WEIGHT>  (105) 
421.52

>  <PRODUCTS>  (105) 
nan

>  <SALTS>  (105) 
nan

>  <SECONDARY_ACCESSION_NUMBERS>  (105) 
nan

>  <SMILES>  (105) 
O\N=C1/C=C(OC2=C1C=C(CCCN1CCOCC1)C=C2)C1=CC2=C(C=CS2)C=N1

>  <SYNONYMS>  (105) 
nan

>  <ECFP_FP>  (105) 
<rdkit.DataStructs.cDataStructs.ExplicitBitVect object at 0xa26d623a0>

>  <pki_G>  (105) 
5.733566

>  <pki_D>  (105) 
5.738766

>  <pki_B>  (105) 
5.437307

>  <pki_A>  (105) 
5.210107

>  <SelB>  (105) 
0.296259

>  <SelA>  (105) 
0.523458

>  <SelD>  (105) 
-0.0052

>  <AvgABSel>  (105) 
0.409859

>  <MACCS_FP>  (105) 
[0. 0. 0. 0. 0. 0. 0. 0. 0. 0. 0. 0. 0. 0. 0. 0. 0. 0. 0. 0. 0. 0. 0. 0.
 1. 0. 0. 0. 0. 0. 0. 0. 0. 0. 0. 0. 1. 0. 0. 0. 0. 0. 0. 0. 0. 0. 0. 0.
 0. 0. 0. 0. 0. 0. 0. 0. 0. 1. 0. 0. 0. 0. 1. 0. 0. 1. 0. 0. 0. 1. 0. 1.
 0. 0. 0. 1. 0. 0. 1. 0. 0. 1. 0. 1. 0. 1. 1. 0. 1. 0. 0. 0. 0. 0. 1. 1.
 1. 1. 1. 0. 1. 1. 1. 0. 0. 1. 0. 0. 0. 1. 0. 1. 0. 0. 0. 0. 0. 0. 1. 1.
 1. 1. 1. 0. 1. 1. 0. 0. 1. 1. 0. 0. 1. 1. 0. 1. 0. 1. 1. 1. 0. 0. 1. 0.
 0. 1. 1. 1. 1. 0. 0. 0. 1. 1. 0. 1. 1. 1. 1. 1. 0. 1. 1. 1. 1. 1. 0.]

>  <MACCS_pki_G>  (105) 
6.409777

>  <MACCS_pki_D>  (105) 
5.788877

>  <MACCS_pki_B>  (105) 
5.856135

>  <MACCS_pki_A>  (105) 
5.668232

>  <MACCS_SelB>  (105) 
0.553641

>  <MACCS_SelA>  (105) 
0.741545

>  <MACCS_SelD>  (105) 
0.620899

>  <MACCSAvgABSel>  (105) 
0.647593

>  <Pharm2D_FP>  (105) 
[0. 0. 0. ... 0. 0. 0.]

>  <Pharm2D_pki_G>  (105) 
5.972746

>  <Pharm2D_pki_D>  (105) 
6.029838

>  <Pharm2D_pki_B>  (105) 
5.417398

>  <Pharm2D_pki_A>  (105) 
5.851284

>  <Pharm2D_SelB>  (105) 
0.555348

>  <Pharm2D_SelA>  (105) 
0.121462

>  <Pharm2D_SelD>  (105) 
-0.057092

>  <Pharm2DAvgABSel>  (105) 
0.338405

>  <QED>  (105) 
0.385023

$$$$
DB06274
     RDKit          2D

 31 33  0  0  1  0  0  0  0  0999 V2000
    5.5541    3.5789    0.0000 O   0  0  0  0  0  0  0  0  0  0  0  0
    4.5080   -1.9751    0.0000 O   0  0  0  0  0  0  0  0  0  0  0  0
    2.3645   -4.0376    0.0000 O   0  0  0  0  0  0  0  0  0  0  0  0
    1.6500   -2.8001    0.0000 O   0  0  0  0  0  0  0  0  0  0  0  0
    3.0791    0.5000    0.0000 N   0  0  0  0  0  0  0  0  0  0  0  0
    3.0791   -1.9751    0.0000 N   0  0  0  0  0  0  0  0  0  0  0  0
    3.0791    2.1500    0.0000 C   0  0  0  0  0  0  0  0  0  0  0  0
    2.3645    1.7375    0.0000 C   0  0  0  0  0  0  0  0  0  0  0  0
    3.7935    1.7375    0.0000 C   0  0  0  0  0  0  0  0  0  0  0  0
    2.3645    0.9125    0.0000 C   0  0  0  0  0  0  0  0  0  0  0  0
    3.7935    0.9125    0.0000 C   0  0  0  0  0  0  0  0  0  0  0  0
    3.4916    2.8645    0.0000 C   0  0  0  0  0  0  0  0  0  0  0  0
    2.6665    2.8645    0.0000 C   0  0  0  0  0  0  0  0  0  0  0  0
    1.6500    2.1500    0.0000 C   0  0  0  0  0  0  0  0  0  0  0  0
    3.0791   -0.3251    0.0000 C   0  0  0  0  0  0  0  0  0  0  0  0
    3.7935   -0.7376    0.0000 C   0  0  0  0  0  0  0  0  0  0  0  0
    4.3166    2.8645    0.0000 C   0  0  0  0  0  0  0  0  0  0  0  0
    3.0791    3.5789    0.0000 C   0  0  0  0  0  0  0  0  0  0  0  0
    4.5080   -0.3251    0.0000 C   0  0  0  0  0  0  0  0  0  0  0  0
    3.7935   -1.5626    0.0000 C   0  0  0  0  0  0  0  0  0  0  0  0
    4.7291    3.5789    0.0000 C   0  0  0  0  0  0  0  0  0  0  0  0
    3.4916    4.2934    0.0000 C   0  0  0  0  0  0  0  0  0  0  0  0
    4.3166    4.2934    0.0000 C   0  0  0  0  0  0  0  0  0  0  0  0
    5.2224   -0.7376    0.0000 C   0  0  0  0  0  0  0  0  0  0  0  0
    5.9370   -0.3251    0.0000 C   0  0  0  0  0  0  0  0  0  0  0  0
    5.2224   -1.5626    0.0000 C   0  0  0  0  0  0  0  0  0  0  0  0
    3.0791   -2.8001    0.0000 C   0  0  0  0  0  0  0  0  0  0  0  0
    6.6515   -0.7376    0.0000 C   0  0  0  0  0  0  0  0  0  0  0  0
    5.9370   -1.9751    0.0000 C   0  0  0  0  0  0  0  0  0  0  0  0
    6.6515   -1.5626    0.0000 C   0  0  0  0  0  0  0  0  0  0  0  0
    2.3645   -3.2126    0.0000 C   0  0  0  0  0  0  0  0  0  0  0  0
  1 21  1  0
  2 20  2  0
  3 31  1  0
  4 31  2  0
  5 10  1  0
  5 11  1  0
  5 15  1  0
  6 20  1  0
  6 27  1  0
  7  8  1  0
  7  9  1  0
  7 12  1  0
  7 13  1  1
  8 10  1  0
  8 14  1  6
  9 11  1  0
 12 17  2  0
 12 18  1  0
 16 15  1  6
 16 19  1  0
 16 20  1  0
 17 21  1  0
 18 22  2  0
 19 24  1  0
 21 23  2  0
 22 23  1  0
 24 25  2  0
 24 26  1  0
 25 28  1  0
 26 29  2  0
 27 31  1  0
 28 30  2  0
 29 30  1  0
M  END
>  <ALOGPS_LOGP>  (106) 
3.25

>  <ALOGPS_LOGS>  (106) 
-4.71

>  <ALOGPS_SOLUBILITY>  (106) 
8.34e-03 g/l

>  <DATABASE_NAME>  (106) 
drugbank

>  <DRUGBANK_ID>  (106) 
DB06274

>  <DRUG_GROUPS>  (106) 
approved; investigational

>  <EXACT_MASS>  (106) 
424.236207522

>  <FORMULA>  (106) 
C25H32N2O4

>  <GENERIC_NAME>  (106) 
Alvimopan

>  <ID>  (106) 


>  <INCHI_IDENTIFIER>  (106) 
InChI=1S/C25H32N2O4/c1-18-16-27(12-11-25(18,2)21-9-6-10-22(28)14-21)17-20(24(31)26-15-23(29)30)13-19-7-4-3-5-8-19/h3-10,14,18,20,28H,11-13,15-17H2,1-2H3,(H,26,31)(H,29,30)/t18-,20-,25+/m0/s1

>  <INCHI_KEY>  (106) 
UPNUIXSCZBYVBB-JVFUWBCBSA-N

>  <INTERNATIONAL_BRANDS>  (106) 
nan

>  <JCHEM_ACCEPTOR_COUNT>  (106) 
5

>  <JCHEM_ATOM_COUNT>  (106) 
nan

>  <JCHEM_AVERAGE_POLARIZABILITY>  (106) 
46.77327562863968

>  <JCHEM_BIOAVAILABILITY>  (106) 
1

>  <JCHEM_DONOR_COUNT>  (106) 
3

>  <JCHEM_FORMAL_CHARGE>  (106) 
0

>  <JCHEM_GHOSE_FILTER>  (106) 
1

>  <JCHEM_IUPAC>  (106) 
2-[(2S)-2-benzyl-3-[(3R,4R)-4-(3-hydroxyphenyl)-3,4-dimethylpiperidin-1-yl]propanamido]acetic acid

>  <JCHEM_LOGP>  (106) 
0.8221535913906884

>  <JCHEM_MDDR_LIKE_RULE>  (106) 
1

>  <JCHEM_NUMBER_OF_RINGS>  (106) 
3

>  <JCHEM_PHYSIOLOGICAL_CHARGE>  (106) 
0

>  <JCHEM_PKA>  (106) 
9.747830001391664

>  <JCHEM_PKA_STRONGEST_ACIDIC>  (106) 
3.7093873384880482

>  <JCHEM_PKA_STRONGEST_BASIC>  (106) 
10.664563055671838

>  <JCHEM_POLAR_SURFACE_AREA>  (106) 
89.86999999999999

>  <JCHEM_REFRACTIVITY>  (106) 
120.55930000000001

>  <JCHEM_ROTATABLE_BOND_COUNT>  (106) 
8

>  <JCHEM_RULE_OF_FIVE>  (106) 
1

>  <JCHEM_TRADITIONAL_IUPAC>  (106) 
alvimopan

>  <JCHEM_VEBER_RULE>  (106) 
0

>  <MOLECULAR_WEIGHT>  (106) 
424.5326

>  <PRODUCTS>  (106) 
Entereg

>  <SALTS>  (106) 
Alvimopan dihydrate

>  <SECONDARY_ACCESSION_NUMBERS>  (106) 
nan

>  <SMILES>  (106) 
C[C@H]1CN(C[C@H](CC2=CC=CC=C2)C(=O)NCC(O)=O)CC[C@@]1(C)C1=CC(O)=CC=C1

>  <SYNONYMS>  (106) 
Alvimopan; Alvimopan anhydrous; Anhydrous alvimopan

>  <ECFP_FP>  (106) 
<rdkit.DataStructs.cDataStructs.ExplicitBitVect object at 0xa269ff3f0>

>  <pki_G>  (106) 
5.733563

>  <pki_D>  (106) 
5.827102

>  <pki_B>  (106) 
5.349695

>  <pki_A>  (106) 
6.011239

>  <SelB>  (106) 
0.383868

>  <SelA>  (106) 
-0.277676

>  <SelD>  (106) 
-0.093539

>  <AvgABSel>  (106) 
0.053096

>  <MACCS_FP>  (106) 
[0. 0. 0. 0. 0. 0. 0. 0. 0. 0. 0. 0. 0. 0. 0. 0. 0. 0. 0. 0. 0. 0. 0. 0.
 0. 0. 0. 0. 0. 0. 0. 0. 0. 0. 0. 0. 0. 0. 0. 0. 0. 0. 0. 0. 0. 0. 0. 0.
 0. 0. 0. 0. 0. 0. 1. 0. 0. 0. 0. 0. 0. 0. 1. 0. 0. 0. 1. 0. 0. 0. 0. 0.
 0. 0. 0. 1. 0. 0. 0. 0. 1. 0. 1. 0. 0. 1. 1. 0. 0. 0. 1. 0. 1. 0. 0. 1.
 0. 1. 1. 0. 1. 0. 0. 0. 1. 0. 0. 0. 1. 0. 1. 1. 1. 1. 0. 1. 1. 1. 1. 0.
 0. 1. 1. 1. 0. 1. 0. 1. 1. 1. 0. 1. 1. 0. 0. 0. 1. 1. 1. 1. 1. 0. 1. 1.
 0. 1. 1. 1. 1. 1. 1. 1. 1. 1. 1. 1. 1. 1. 1. 1. 1. 1. 1. 1. 1. 1. 0.]

>  <MACCS_pki_G>  (106) 
5.997158

>  <MACCS_pki_D>  (106) 
5.766438

>  <MACCS_pki_B>  (106) 
5.479465

>  <MACCS_pki_A>  (106) 
6.107

>  <MACCS_SelB>  (106) 
0.517693

>  <MACCS_SelA>  (106) 
-0.109842

>  <MACCS_SelD>  (106) 
0.230721

>  <MACCSAvgABSel>  (106) 
0.203926

>  <Pharm2D_FP>  (106) 
[0. 0. 0. ... 0. 0. 0.]

>  <Pharm2D_pki_G>  (106) 
6.113558

>  <Pharm2D_pki_D>  (106) 
5.467528

>  <Pharm2D_pki_B>  (106) 
5.377932

>  <Pharm2D_pki_A>  (106) 
5.375191

>  <Pharm2D_SelB>  (106) 
0.735627

>  <Pharm2D_SelA>  (106) 
0.738367

>  <Pharm2D_SelD>  (106) 
0.646031

>  <Pharm2DAvgABSel>  (106) 
0.736997

>  <QED>  (106) 
0.606054

$$$$
DB02865
     RDKit          2D

 16 16  0  0  1  0  0  0  0  0999 V2000
    2.1434    1.2375    0.0000 N   0  0  0  0  0  0  0  0  0  0  0  0
    1.4289    0.8250    0.0000 C   0  0  0  0  0  0  0  0  0  0  0  0
    1.4289    0.0000    0.0000 C   0  0  0  0  0  0  0  0  0  0  0  0
    2.1434   -0.4125    0.0000 O   0  0  0  0  0  0  0  0  0  0  0  0
    0.7145   -0.4125    0.0000 O   0  0  0  0  0  0  0  0  0  0  0  0
    0.0000    0.0000    0.0000 C   0  0  0  0  0  0  0  0  0  0  0  0
   -0.7145   -0.4125    0.0000 C   0  0  0  0  0  0  0  0  0  0  0  0
   -1.4289    0.0000    0.0000 O   0  0  0  0  0  0  0  0  0  0  0  0
    0.0000    0.8250    0.0000 C   0  0  0  0  0  0  0  0  0  0  0  0
   -0.7145    1.2375    0.0000 O   0  0  0  0  0  0  0  0  0  0  0  0
   -1.4289    0.8250    0.0000 P   0  0  0  0  0  0  0  0  0  0  0  0
   -2.1434    0.4125    0.0000 O   0  0  0  0  0  0  0  0  0  0  0  0
   -1.8414    1.5395    0.0000 O   0  0  0  0  0  0  0  0  0  0  0  0
   -1.0164    0.1105    0.0000 O   0  0  0  0  0  0  0  0  0  0  0  0
    0.7145    1.2375    0.0000 C   0  0  0  0  0  0  0  0  0  0  0  0
    0.7145    2.0625    0.0000 O   0  0  0  0  0  0  0  0  0  0  0  0
  2  1  1  1
  2  3  1  0
  3  4  1  6
  3  5  1  0
  5  6  1  0
  6  7  1  6
  7  8  1  0
  6  9  1  0
  9 10  1  1
 10 11  1  0
 11 12  1  0
 11 13  1  0
 11 14  2  0
  9 15  1  0
  2 15  1  0
 15 16  1  6
M  END
>  <ALOGPS_LOGP>  (107) 
-2.61

>  <ALOGPS_LOGS>  (107) 
-0.83

>  <ALOGPS_SOLUBILITY>  (107) 
3.86e+01 g/l

>  <DATABASE_NAME>  (107) 
drugbank

>  <DRUGBANK_ID>  (107) 
DB02865

>  <DRUG_GROUPS>  (107) 
experimental

>  <EXACT_MASS>  (107) 
259.045702941

>  <FORMULA>  (107) 
C6H14NO8P

>  <GENERIC_NAME>  (107) 
Glucosamine 4-Phosphate

>  <ID>  (107) 


>  <INCHI_IDENTIFIER>  (107) 
InChI=1S/C6H14NO8P/c7-3-4(9)5(15-16(11,12)13)2(1-8)14-6(3)10/h2-6,8-10H,1,7H2,(H2,11,12,13)/t2-,3-,4-,5-,6-/m1/s1

>  <INCHI_KEY>  (107) 
QWDBGVNDGYUIAC-QZABAPFNSA-N

>  <INTERNATIONAL_BRANDS>  (107) 
nan

>  <JCHEM_ACCEPTOR_COUNT>  (107) 
8

>  <JCHEM_ATOM_COUNT>  (107) 
nan

>  <JCHEM_AVERAGE_POLARIZABILITY>  (107) 
21.32218606850605

>  <JCHEM_BIOAVAILABILITY>  (107) 
1

>  <JCHEM_DONOR_COUNT>  (107) 
6

>  <JCHEM_FORMAL_CHARGE>  (107) 
0

>  <JCHEM_GHOSE_FILTER>  (107) 
0

>  <JCHEM_IUPAC>  (107) 
{[(2R,3S,4R,5R,6R)-5-amino-4,6-dihydroxy-2-(hydroxymethyl)oxan-3-yl]oxy}phosphonic acid

>  <JCHEM_LOGP>  (107) 
-4.176654765956165

>  <JCHEM_MDDR_LIKE_RULE>  (107) 
0

>  <JCHEM_NUMBER_OF_RINGS>  (107) 
1

>  <JCHEM_PHYSIOLOGICAL_CHARGE>  (107) 
-1

>  <JCHEM_PKA>  (107) 
5.9653387667750986

>  <JCHEM_PKA_STRONGEST_ACIDIC>  (107) 
0.9349921475808509

>  <JCHEM_PKA_STRONGEST_BASIC>  (107) 
8.528679612837132

>  <JCHEM_POLAR_SURFACE_AREA>  (107) 
162.70000000000002

>  <JCHEM_REFRACTIVITY>  (107) 
48.4538

>  <JCHEM_ROTATABLE_BOND_COUNT>  (107) 
3

>  <JCHEM_RULE_OF_FIVE>  (107) 
0

>  <JCHEM_TRADITIONAL_IUPAC>  (107) 
glucosamine 4-phosphate

>  <JCHEM_VEBER_RULE>  (107) 
0

>  <MOLECULAR_WEIGHT>  (107) 
259.151

>  <PRODUCTS>  (107) 
nan

>  <SALTS>  (107) 
nan

>  <SECONDARY_ACCESSION_NUMBERS>  (107) 
EXPT01634

>  <SMILES>  (107) 
N[C@H]1[C@H](O)O[C@H](CO)[C@@H](OP(O)(O)=O)[C@@H]1O

>  <SYNONYMS>  (107) 
nan

>  <ECFP_FP>  (107) 
<rdkit.DataStructs.cDataStructs.ExplicitBitVect object at 0xa26777d50>

>  <pki_G>  (107) 
5.733522

>  <pki_D>  (107) 
5.847334

>  <pki_B>  (107) 
5.333795

>  <pki_A>  (107) 
5.022814

>  <SelB>  (107) 
0.399727

>  <SelA>  (107) 
0.710708

>  <SelD>  (107) 
-0.113812

>  <AvgABSel>  (107) 
0.555217

>  <MACCS_FP>  (107) 
[0. 0. 0. 0. 0. 0. 0. 0. 0. 0. 0. 0. 0. 0. 0. 0. 0. 0. 0. 0. 0. 0. 0. 0.
 0. 0. 0. 0. 0. 1. 0. 0. 0. 0. 0. 0. 0. 0. 0. 0. 0. 0. 0. 1. 0. 0. 0. 0.
 1. 0. 0. 0. 0. 1. 1. 0. 0. 1. 0. 0. 0. 0. 0. 0. 0. 0. 0. 0. 0. 1. 0. 0.
 1. 0. 0. 0. 0. 0. 0. 0. 0. 0. 1. 0. 1. 0. 0. 0. 0. 1. 0. 1. 0. 0. 0. 1.
 0. 1. 1. 0. 0. 0. 1. 0. 0. 0. 1. 0. 0. 1. 0. 0. 1. 0. 0. 0. 0. 0. 0. 0.
 0. 0. 0. 1. 1. 0. 1. 1. 0. 0. 1. 1. 1. 1. 0. 0. 0. 1. 0. 1. 1. 0. 0. 1.
 0. 0. 1. 0. 1. 0. 1. 1. 1. 1. 0. 1. 1. 1. 1. 1. 0. 1. 0. 1. 1. 1. 0.]

>  <MACCS_pki_G>  (107) 
6.522378

>  <MACCS_pki_D>  (107) 
5.870375

>  <MACCS_pki_B>  (107) 
5.845191

>  <MACCS_pki_A>  (107) 
5.478472

>  <MACCS_SelB>  (107) 
0.677187

>  <MACCS_SelA>  (107) 
1.043906

>  <MACCS_SelD>  (107) 
0.652003

>  <MACCSAvgABSel>  (107) 
0.860547

>  <Pharm2D_FP>  (107) 
[0. 0. 0. ... 0. 0. 0.]

>  <Pharm2D_pki_G>  (107) 
5.813009

>  <Pharm2D_pki_D>  (107) 
5.708306

>  <Pharm2D_pki_B>  (107) 
5.398156

>  <Pharm2D_pki_A>  (107) 
4.846609

>  <Pharm2D_SelB>  (107) 
0.414854

>  <Pharm2D_SelA>  (107) 
0.9664

>  <Pharm2D_SelD>  (107) 
0.104704

>  <Pharm2DAvgABSel>  (107) 
0.690627

>  <QED>  (107) 
0.287306

$$$$
DB03111
     RDKit          2D

 16 16  0  0  1  0  0  0  0  0999 V2000
    0.7145   -0.4125    0.0000 C   0  0  0  0  0  0  0  0  0  0  0  0
    0.7145    0.4125    0.0000 C   0  0  0  0  0  0  0  0  0  0  0  0
    0.0000    0.8250    0.0000 O   0  0  0  0  0  0  0  0  0  0  0  0
    0.0000   -0.8250    0.0000 C   0  0  0  0  0  0  0  0  0  0  0  0
   -0.7145    0.4125    0.0000 C   0  0  0  0  0  0  0  0  0  0  0  0
   -0.7145   -0.4125    0.0000 C   0  0  0  0  0  0  0  0  0  0  0  0
    1.4289   -0.8250    0.0000 N   0  0  0  0  0  0  0  0  0  0  0  0
    0.0000   -1.6500    0.0000 O   0  0  0  0  0  0  0  0  0  0  0  0
   -1.4289   -0.8250    0.0000 O   0  0  0  0  0  0  0  0  0  0  0  0
   -1.4289    0.8250    0.0000 C   0  0  0  0  0  0  0  0  0  0  0  0
   -2.1434    0.4125    0.0000 O   0  0  0  0  0  0  0  0  0  0  0  0
    1.4289    0.8250    0.0000 O   0  0  0  0  0  0  0  0  0  0  0  0
    1.4289    2.4750    0.0000 O   0  0  0  0  0  0  0  0  0  0  0  0
    2.1434    2.0625    0.0000 O   0  0  0  0  0  0  0  0  0  0  0  0
    1.4289    1.6500    0.0000 P   0  0  0  0  0  0  0  0  0  0  0  0
    0.7144    2.0625    0.0000 O   0  0  0  0  0  0  0  0  0  0  0  0
  1  7  1  6
  2  1  1  0
  2 12  1  6
  2  3  1  0
  1  4  1  0
  4  8  1  1
  3  5  1  0
  5 10  1  1
  4  6  1  0
  5  6  1  0
  6  9  1  6
 10 11  1  0
 12 15  1  0
 15 13  2  0
 15 14  1  0
 15 16  1  0
M  END
>  <ALOGPS_LOGP>  (108) 
-2.59

>  <ALOGPS_LOGS>  (108) 
-0.87

>  <ALOGPS_SOLUBILITY>  (108) 
3.51e+01 g/l

>  <DATABASE_NAME>  (108) 
drugbank

>  <DRUGBANK_ID>  (108) 
DB03111

>  <DRUG_GROUPS>  (108) 
experimental

>  <EXACT_MASS>  (108) 
259.045702941

>  <FORMULA>  (108) 
C6H14NO8P

>  <GENERIC_NAME>  (108) 
Glucosamine 1-Phosphate

>  <ID>  (108) 


>  <INCHI_IDENTIFIER>  (108) 
InChI=1S/C6H14NO8P/c7-3-5(10)4(9)2(1-8)14-6(3)15-16(11,12)13/h2-6,8-10H,1,7H2,(H2,11,12,13)/t2-,3-,4-,5-,6-/m1/s1

>  <INCHI_KEY>  (108) 
YMJBYRVFGYXULK-QZABAPFNSA-N

>  <INTERNATIONAL_BRANDS>  (108) 
nan

>  <JCHEM_ACCEPTOR_COUNT>  (108) 
8

>  <JCHEM_ATOM_COUNT>  (108) 
nan

>  <JCHEM_AVERAGE_POLARIZABILITY>  (108) 
21.237894289193314

>  <JCHEM_BIOAVAILABILITY>  (108) 
1

>  <JCHEM_DONOR_COUNT>  (108) 
6

>  <JCHEM_FORMAL_CHARGE>  (108) 
0

>  <JCHEM_GHOSE_FILTER>  (108) 
0

>  <JCHEM_IUPAC>  (108) 
{[(2R,3R,4R,5S,6R)-3-amino-4,5-dihydroxy-6-(hydroxymethyl)oxan-2-yl]oxy}phosphonic acid

>  <JCHEM_LOGP>  (108) 
-4.175617677240273

>  <JCHEM_MDDR_LIKE_RULE>  (108) 
0

>  <JCHEM_NUMBER_OF_RINGS>  (108) 
1

>  <JCHEM_PHYSIOLOGICAL_CHARGE>  (108) 
-1

>  <JCHEM_PKA>  (108) 
6.242011904159365

>  <JCHEM_PKA_STRONGEST_ACIDIC>  (108) 
1.178810463362137

>  <JCHEM_PKA_STRONGEST_BASIC>  (108) 
8.692592555712746

>  <JCHEM_POLAR_SURFACE_AREA>  (108) 
162.7

>  <JCHEM_REFRACTIVITY>  (108) 
48.453799999999994

>  <JCHEM_ROTATABLE_BOND_COUNT>  (108) 
3

>  <JCHEM_RULE_OF_FIVE>  (108) 
0

>  <JCHEM_TRADITIONAL_IUPAC>  (108) 
α-D-glucosamine 1-phosphate

>  <JCHEM_VEBER_RULE>  (108) 
0

>  <MOLECULAR_WEIGHT>  (108) 
259.151

>  <PRODUCTS>  (108) 
nan

>  <SALTS>  (108) 
nan

>  <SECONDARY_ACCESSION_NUMBERS>  (108) 
EXPT01631

>  <SMILES>  (108) 
N[C@@H]1[C@@H](O)[C@H](O)[C@@H](CO)O[C@@H]1OP(O)(O)=O

>  <SYNONYMS>  (108) 
nan

>  <ECFP_FP>  (108) 
<rdkit.DataStructs.cDataStructs.ExplicitBitVect object at 0xa267a6170>

>  <pki_G>  (108) 
5.733522

>  <pki_D>  (108) 
5.8175

>  <pki_B>  (108) 
5.327905

>  <pki_A>  (108) 
5.043578

>  <SelB>  (108) 
0.405617

>  <SelA>  (108) 
0.689944

>  <SelD>  (108) 
-0.083979

>  <AvgABSel>  (108) 
0.54778

>  <MACCS_FP>  (108) 
[0. 0. 0. 0. 0. 0. 0. 0. 0. 0. 0. 0. 0. 0. 0. 0. 0. 0. 0. 0. 0. 0. 0. 0.
 0. 0. 0. 0. 0. 1. 0. 0. 0. 0. 0. 0. 0. 0. 0. 0. 0. 0. 0. 1. 0. 0. 0. 0.
 1. 0. 0. 0. 0. 1. 1. 0. 0. 1. 0. 0. 0. 0. 0. 0. 0. 0. 0. 0. 0. 1. 0. 0.
 1. 0. 0. 0. 0. 0. 0. 0. 0. 0. 1. 0. 1. 0. 0. 0. 0. 1. 1. 1. 0. 0. 0. 1.
 0. 1. 1. 0. 0. 0. 1. 0. 0. 0. 1. 0. 0. 1. 0. 0. 1. 0. 0. 0. 0. 0. 0. 0.
 0. 0. 0. 1. 1. 0. 1. 1. 0. 0. 1. 1. 1. 1. 0. 0. 0. 1. 0. 1. 1. 0. 0. 1.
 0. 0. 1. 0. 1. 0. 1. 1. 1. 1. 0. 1. 1. 1. 1. 1. 0. 1. 0. 1. 1. 1. 0.]

>  <MACCS_pki_G>  (108) 
6.522378

>  <MACCS_pki_D>  (108) 
5.870375

>  <MACCS_pki_B>  (108) 
5.845191

>  <MACCS_pki_A>  (108) 
5.68

>  <MACCS_SelB>  (108) 
0.677187

>  <MACCS_SelA>  (108) 
0.842378

>  <MACCS_SelD>  (108) 
0.652003

>  <MACCSAvgABSel>  (108) 
0.759783

>  <Pharm2D_FP>  (108) 
[0. 0. 0. ... 0. 0. 0.]

>  <Pharm2D_pki_G>  (108) 
5.813009

>  <Pharm2D_pki_D>  (108) 
5.708306

>  <Pharm2D_pki_B>  (108) 
5.402406

>  <Pharm2D_pki_A>  (108) 
4.846609

>  <Pharm2D_SelB>  (108) 
0.410604

>  <Pharm2D_SelA>  (108) 
0.9664

>  <Pharm2D_SelD>  (108) 
0.104704

>  <Pharm2DAvgABSel>  (108) 
0.688502

>  <QED>  (108) 
0.287306

$$$$
DB02657
     RDKit          2D

 16 16  0  0  1  0  0  0  0  0999 V2000
   -2.0366    0.3892    0.0000 P   0  0  0  0  0  0  0  0  0  0  0  0
   -1.2129    0.3892    0.0000 O   0  0  0  0  0  0  0  0  0  0  0  0
   -2.8566    0.3892    0.0000 O   0  0  0  0  0  0  0  0  0  0  0  0
   -2.0366    1.2129    0.0000 O   0  0  0  0  0  0  0  0  0  0  0  0
   -2.0366   -0.4308    0.0000 O   0  0  0  0  0  0  0  0  0  0  0  0
   -0.5025    0.8010    0.0000 C   0  0  0  0  0  0  0  0  0  0  0  0
    0.2116    0.3892    0.0000 C   0  0  0  0  0  0  0  0  0  0  0  0
    0.2116   -0.4420    0.0000 C   0  0  0  0  0  0  0  0  0  0  0  0
    0.9220    0.8010    0.0000 O   0  0  0  0  0  0  0  0  0  0  0  0
    0.9220   -0.8615    0.0000 C   0  0  0  0  0  0  0  0  0  0  0  0
   -0.5025   -0.8502    0.0000 O   0  0  0  0  0  0  0  0  0  0  0  0
    1.6437    0.3892    0.0000 C   0  0  0  0  0  0  0  0  0  0  0  0
    1.6437   -0.4420    0.0000 C   0  0  0  0  0  0  0  0  0  0  0  0
    0.9220   -1.6852    0.0000 O   0  0  0  0  0  0  0  0  0  0  0  0
    2.3541    0.8010    0.0000 O   0  0  0  0  0  0  0  0  0  0  0  0
    2.3541   -0.8502    0.0000 N   0  0  0  0  0  0  0  0  0  0  0  0
  1  2  1  0
  1  3  1  0
  1  4  1  0
  1  5  2  0
  2  6  1  0
  7  6  1  1
  7  8  1  0
  7  9  1  0
  8 10  1  0
  8 11  1  6
  9 12  1  0
 10 13  1  0
 10 14  1  1
 12 15  1  6
 13 16  1  6
 12 13  1  0
M  END
>  <ALOGPS_LOGP>  (109) 
-2.6

>  <ALOGPS_LOGS>  (109) 
-0.87

>  <ALOGPS_SOLUBILITY>  (109) 
3.48e+01 g/l

>  <DATABASE_NAME>  (109) 
drugbank

>  <DRUGBANK_ID>  (109) 
DB02657

>  <DRUG_GROUPS>  (109) 
experimental

>  <EXACT_MASS>  (109) 
259.045702941

>  <FORMULA>  (109) 
C6H14NO8P

>  <GENERIC_NAME>  (109) 
Glucosamine 6-Phosphate

>  <ID>  (109) 


>  <INCHI_IDENTIFIER>  (109) 
InChI=1S/C6H14NO8P/c7-3-5(9)4(8)2(15-6(3)10)1-14-16(11,12)13/h2-6,8-10H,1,7H2,(H2,11,12,13)/t2-,3-,4-,5-,6+/m1/s1

>  <INCHI_KEY>  (109) 
XHMJOUIAFHJHBW-UKFBFLRUSA-N

>  <INTERNATIONAL_BRANDS>  (109) 
nan

>  <JCHEM_ACCEPTOR_COUNT>  (109) 
8

>  <JCHEM_ATOM_COUNT>  (109) 
nan

>  <JCHEM_AVERAGE_POLARIZABILITY>  (109) 
20.953527563791006

>  <JCHEM_BIOAVAILABILITY>  (109) 
1

>  <JCHEM_DONOR_COUNT>  (109) 
6

>  <JCHEM_FORMAL_CHARGE>  (109) 
0

>  <JCHEM_GHOSE_FILTER>  (109) 
0

>  <JCHEM_IUPAC>  (109) 
{[(2R,3S,4R,5R,6S)-5-amino-3,4,6-trihydroxyoxan-2-yl]methoxy}phosphonic acid

>  <JCHEM_LOGP>  (109) 
-4.175672293724102

>  <JCHEM_MDDR_LIKE_RULE>  (109) 
0

>  <JCHEM_NUMBER_OF_RINGS>  (109) 
1

>  <JCHEM_PHYSIOLOGICAL_CHARGE>  (109) 
-1

>  <JCHEM_PKA>  (109) 
6.244475918446593

>  <JCHEM_PKA_STRONGEST_ACIDIC>  (109) 
1.2231700437457214

>  <JCHEM_PKA_STRONGEST_BASIC>  (109) 
8.234242859039174

>  <JCHEM_POLAR_SURFACE_AREA>  (109) 
162.70000000000002

>  <JCHEM_REFRACTIVITY>  (109) 
48.453799999999994

>  <JCHEM_ROTATABLE_BOND_COUNT>  (109) 
3

>  <JCHEM_RULE_OF_FIVE>  (109) 
0

>  <JCHEM_TRADITIONAL_IUPAC>  (109) 
α-D-glucosamine 6-phosphate

>  <JCHEM_VEBER_RULE>  (109) 
0

>  <MOLECULAR_WEIGHT>  (109) 
259.151

>  <PRODUCTS>  (109) 
nan

>  <SALTS>  (109) 
nan

>  <SECONDARY_ACCESSION_NUMBERS>  (109) 
EXPT01610

>  <SMILES>  (109) 
N[C@H]1[C@@H](O)O[C@H](COP(O)(O)=O)[C@@H](O)[C@@H]1O

>  <SYNONYMS>  (109) 
nan

>  <ECFP_FP>  (109) 
<rdkit.DataStructs.cDataStructs.ExplicitBitVect object at 0xa26750c60>

>  <pki_G>  (109) 
5.733522

>  <pki_D>  (109) 
5.8175

>  <pki_B>  (109) 
5.368116

>  <pki_A>  (109) 
5.043578

>  <SelB>  (109) 
0.365406

>  <SelA>  (109) 
0.689944

>  <SelD>  (109) 
-0.083979

>  <AvgABSel>  (109) 
0.527675

>  <MACCS_FP>  (109) 
[0. 0. 0. 0. 0. 0. 0. 0. 0. 0. 0. 0. 0. 0. 0. 0. 0. 0. 0. 0. 0. 0. 0. 0.
 0. 0. 0. 0. 0. 1. 0. 0. 0. 0. 0. 0. 0. 0. 0. 0. 0. 0. 0. 1. 0. 0. 0. 0.
 1. 0. 0. 0. 0. 1. 1. 0. 0. 1. 0. 0. 0. 0. 0. 0. 0. 0. 0. 0. 0. 1. 0. 0.
 1. 0. 0. 0. 0. 0. 0. 0. 0. 0. 0. 0. 1. 0. 0. 0. 0. 1. 1. 1. 0. 0. 0. 1.
 0. 1. 1. 0. 0. 0. 1. 0. 0. 0. 1. 0. 0. 1. 0. 0. 1. 0. 0. 0. 0. 0. 0. 0.
 0. 0. 0. 1. 1. 0. 1. 1. 0. 0. 1. 1. 1. 1. 0. 0. 0. 1. 0. 1. 1. 0. 0. 1.
 0. 0. 1. 0. 1. 0. 1. 1. 1. 1. 0. 1. 1. 1. 1. 1. 0. 1. 0. 1. 1. 1. 0.]

>  <MACCS_pki_G>  (109) 
6.498604

>  <MACCS_pki_D>  (109) 
5.890732

>  <MACCS_pki_B>  (109) 
5.845191

>  <MACCS_pki_A>  (109) 
5.68

>  <MACCS_SelB>  (109) 
0.653413

>  <MACCS_SelA>  (109) 
0.818604

>  <MACCS_SelD>  (109) 
0.607872

>  <MACCSAvgABSel>  (109) 
0.736009

>  <Pharm2D_FP>  (109) 
[0. 0. 0. ... 0. 0. 0.]

>  <Pharm2D_pki_G>  (109) 
5.783224

>  <Pharm2D_pki_D>  (109) 
5.706377

>  <Pharm2D_pki_B>  (109) 
5.416971

>  <Pharm2D_pki_A>  (109) 
4.881721

>  <Pharm2D_SelB>  (109) 
0.366253

>  <Pharm2D_SelA>  (109) 
0.901503

>  <Pharm2D_SelD>  (109) 
0.076847

>  <Pharm2DAvgABSel>  (109) 
0.633878

>  <QED>  (109) 
0.287306

$$$$
DB03726
     RDKit          2D

 22 24  0  0  1  0  0  0  0  0999 V2000
    2.6378    0.1271    0.0000 C   0  0  0  0  0  0  0  0  0  0  0  0
   -0.5683   -3.7149    0.0000 C   0  0  0  0  0  0  0  0  0  0  0  0
    3.3523   -1.1104    0.0000 C   0  0  0  0  0  0  0  0  0  0  0  0
    0.6538   -0.6979    0.0000 C   0  0  0  0  0  0  0  0  0  0  0  0
    1.9233   -0.2854    0.0000 C   0  0  0  0  0  0  0  0  0  0  0  0
    0.0992   -3.2299    0.0000 C   0  0  0  0  0  0  0  0  0  0  0  0
    0.8838   -3.4849    0.0000 C   0  0  0  0  0  0  0  0  0  0  0  0
    1.3687   -2.8174    0.0000 C   0  0  0  0  0  0  0  0  0  0  0  0
    1.9233   -1.1104    0.0000 C   0  0  0  0  0  0  0  0  0  0  0  0
    0.8838   -2.1500    0.0000 C   0  0  0  0  0  0  0  0  0  0  0  0
    3.3523   -0.2854    0.0000 N   0  0  0  0  0  0  0  0  0  0  0  0
    2.6378   -1.5229    0.0000 N   0  0  0  0  0  0  0  0  0  0  0  0
    1.1387   -0.0305    0.0000 N   0  0  0  0  0  0  0  0  0  0  0  0
    1.1387   -1.3654    0.0000 N   0  0  0  0  0  0  0  0  0  0  0  0
    1.1387   -4.2695    0.0000 O   0  0  0  0  0  0  0  0  0  0  0  0
    2.1937   -2.8174    0.0000 O   0  0  0  0  0  0  0  0  0  0  0  0
   -2.6568   -4.3492    0.0000 O   0  0  0  0  0  0  0  0  0  0  0  0
   -2.4743   -3.1968    0.0000 O   0  0  0  0  0  0  0  0  0  0  0  0
   -1.5045   -4.5317    0.0000 O   0  0  0  0  0  0  0  0  0  0  0  0
   -1.3220   -3.3793    0.0000 O   0  0  0  0  0  0  0  0  0  0  0  0
    0.0992   -2.4049    0.0000 O   0  0  0  0  0  0  0  0  0  0  0  0
   -1.9894   -3.8642    0.0000 P   0  0  0  0  0  0  0  0  0  0  0  0
  5  1  2  0
  6  2  1  1
  7  6  1  0
  8  7  1  0
  9  5  1  0
 10  8  1  0
 11  1  1  0
 11  3  2  0
 12  3  1  0
 12  9  2  0
 13  4  2  0
 13  5  1  0
 14  4  1  0
 14  9  1  0
 10 14  1  1
  7 15  1  6
  8 16  1  6
 20  2  1  0
 21  6  1  0
 21 10  1  0
 22 17  1  0
 22 18  1  0
 22 19  2  0
 22 20  1  0
M  END
>  <ALOGPS_LOGP>  (110) 
-2.78

>  <ALOGPS_LOGS>  (110) 
-2.00

>  <ALOGPS_SOLUBILITY>  (110) 
3.29e+00 g/l

>  <DATABASE_NAME>  (110) 
drugbank

>  <DRUGBANK_ID>  (110) 
DB03726

>  <DRUG_GROUPS>  (110) 
experimental

>  <EXACT_MASS>  (110) 
332.052185302

>  <FORMULA>  (110) 
C10H13N4O7P

>  <GENERIC_NAME>  (110) 
Purine Riboside-5'-Monophosphate

>  <ID>  (110) 


>  <INCHI_IDENTIFIER>  (110) 
InChI=1S/C10H13N4O7P/c15-7-6(2-20-22(17,18)19)21-10(8(7)16)14-4-13-5-1-11-3-12-9(5)14/h1,3-4,6-8,10,15-16H,2H2,(H2,17,18,19)/t6-,7-,8-,10-/m1/s1

>  <INCHI_KEY>  (110) 
MCWDCZIDTUQRHK-FDDDBJFASA-N

>  <INTERNATIONAL_BRANDS>  (110) 
nan

>  <JCHEM_ACCEPTOR_COUNT>  (110) 
9

>  <JCHEM_ATOM_COUNT>  (110) 
nan

>  <JCHEM_AVERAGE_POLARIZABILITY>  (110) 
28.240021669773242

>  <JCHEM_BIOAVAILABILITY>  (110) 
1

>  <JCHEM_DONOR_COUNT>  (110) 
4

>  <JCHEM_FORMAL_CHARGE>  (110) 
0

>  <JCHEM_GHOSE_FILTER>  (110) 
0

>  <JCHEM_IUPAC>  (110) 
{[(2R,3S,4R,5R)-3,4-dihydroxy-5-(9H-purin-9-yl)oxolan-2-yl]methoxy}phosphonic acid

>  <JCHEM_LOGP>  (110) 
-4.025767678348632

>  <JCHEM_MDDR_LIKE_RULE>  (110) 
0

>  <JCHEM_NUMBER_OF_RINGS>  (110) 
3

>  <JCHEM_PHYSIOLOGICAL_CHARGE>  (110) 
-2

>  <JCHEM_PKA>  (110) 
3.774764565441818

>  <JCHEM_PKA_STRONGEST_ACIDIC>  (110) 
-2.3231980154509086

>  <JCHEM_PKA_STRONGEST_BASIC>  (110) 
6.251973642458464

>  <JCHEM_POLAR_SURFACE_AREA>  (110) 
160.04999999999998

>  <JCHEM_REFRACTIVITY>  (110) 
69.0546

>  <JCHEM_ROTATABLE_BOND_COUNT>  (110) 
4

>  <JCHEM_RULE_OF_FIVE>  (110) 
1

>  <JCHEM_TRADITIONAL_IUPAC>  (110) 
purine mononucleotide

>  <JCHEM_VEBER_RULE>  (110) 
0

>  <MOLECULAR_WEIGHT>  (110) 
332.2066

>  <PRODUCTS>  (110) 
nan

>  <SALTS>  (110) 
nan

>  <SECONDARY_ACCESSION_NUMBERS>  (110) 
EXPT02482

>  <SMILES>  (110) 
[H][C@]1(COP(O)(O)=O)O[C@@]([H])(N2C=NC3=CN=CN=C23)[C@]([H])(O)[C@]1([H])O

>  <SYNONYMS>  (110) 
nan

>  <ECFP_FP>  (110) 
<rdkit.DataStructs.cDataStructs.ExplicitBitVect object at 0xa268fea30>

>  <pki_G>  (110) 
5.732233

>  <pki_D>  (110) 
5.726775

>  <pki_B>  (110) 
5.382554

>  <pki_A>  (110) 
4.989872

>  <SelB>  (110) 
0.349679

>  <SelA>  (110) 
0.742361

>  <SelD>  (110) 
0.005458

>  <AvgABSel>  (110) 
0.54602

>  <MACCS_FP>  (110) 
[0. 0. 0. 0. 0. 0. 0. 0. 0. 0. 0. 0. 0. 0. 0. 0. 0. 0. 0. 0. 0. 0. 0. 0.
 0. 0. 0. 0. 0. 1. 0. 0. 0. 0. 0. 0. 0. 0. 1. 0. 0. 0. 0. 1. 0. 0. 0. 0.
 1. 0. 0. 0. 0. 0. 1. 0. 0. 1. 0. 0. 0. 0. 1. 0. 0. 1. 0. 0. 0. 1. 0. 0.
 1. 0. 0. 1. 0. 1. 0. 1. 1. 0. 0. 1. 0. 1. 0. 0. 0. 1. 1. 1. 1. 0. 0. 1.
 1. 1. 1. 0. 0. 1. 1. 0. 0. 1. 1. 0. 0. 1. 1. 0. 1. 0. 0. 0. 0. 1. 0. 0.
 1. 1. 1. 0. 1. 1. 1. 1. 0. 0. 1. 1. 1. 1. 0. 0. 0. 1. 0. 1. 1. 0. 1. 1.
 0. 0. 1. 0. 1. 0. 1. 0. 1. 1. 0. 1. 1. 1. 1. 1. 0. 1. 1. 1. 1. 1. 0.]

>  <MACCS_pki_G>  (110) 
6.417908

>  <MACCS_pki_D>  (110) 
5.840321

>  <MACCS_pki_B>  (110) 
5.74978

>  <MACCS_pki_A>  (110) 
5.600444

>  <MACCS_SelB>  (110) 
0.668128

>  <MACCS_SelA>  (110) 
0.817464

>  <MACCS_SelD>  (110) 
0.577588

>  <MACCSAvgABSel>  (110) 
0.742796

>  <Pharm2D_FP>  (110) 
[0. 0. 0. ... 0. 0. 0.]

>  <Pharm2D_pki_G>  (110) 
6.078016

>  <Pharm2D_pki_D>  (110) 
5.979158

>  <Pharm2D_pki_B>  (110) 
5.570909

>  <Pharm2D_pki_A>  (110) 
5.651552

>  <Pharm2D_SelB>  (110) 
0.507107

>  <Pharm2D_SelA>  (110) 
0.426464

>  <Pharm2D_SelD>  (110) 
0.098858

>  <Pharm2DAvgABSel>  (110) 
0.466785

>  <QED>  (110) 
0.487779

$$$$
DB08219
     RDKit          2D

 26 29  0  0  0  0  0  0  0  0999 V2000
    0.6309    5.7727    0.0000 C   0  0  0  0  0  0  0  0  0  0  0  0
   -3.6791    8.4777    0.0000 C   0  0  0  0  0  0  0  0  0  0  0  0
   -2.9646    7.2402    0.0000 C   0  0  0  0  0  0  0  0  0  0  0  0
   -4.3935    8.0652    0.0000 C   0  0  0  0  0  0  0  0  0  0  0  0
   -3.6791    6.8277    0.0000 C   0  0  0  0  0  0  0  0  0  0  0  0
   -0.1067    7.2402    0.0000 C   0  0  0  0  0  0  0  0  0  0  0  0
   -0.1067    8.0652    0.0000 C   0  0  0  0  0  0  0  0  0  0  0  0
   -5.8225    7.2402    0.0000 C   0  0  0  0  0  0  0  0  0  0  0  0
   -5.1080    6.0027    0.0000 C   0  0  0  0  0  0  0  0  0  0  0  0
   -6.5369    6.8277    0.0000 C   0  0  0  0  0  0  0  0  0  0  0  0
   -5.8225    5.5902    0.0000 C   0  0  0  0  0  0  0  0  0  0  0  0
   -0.1537    5.5178    0.0000 C   0  0  0  0  0  0  0  0  0  0  0  0
   -2.9646    8.0652    0.0000 C   0  0  0  0  0  0  0  0  0  0  0  0
   -4.3935    7.2402    0.0000 C   0  0  0  0  0  0  0  0  0  0  0  0
   -0.8212    6.8277    0.0000 C   0  0  0  0  0  0  0  0  0  0  0  0
   -0.8212    6.0027    0.0000 C   0  0  0  0  0  0  0  0  0  0  0  0
   -1.2337    4.7331    0.0000 C   0  0  0  0  0  0  0  0  0  0  0  0
   -1.5356    8.0652    0.0000 C   0  0  0  0  0  0  0  0  0  0  0  0
   -1.7186    4.0657    0.0000 N   0  0  0  0  0  0  0  0  0  0  0  0
   -0.8212    8.4777    0.0000 N   0  0  0  0  0  0  0  0  0  0  0  0
   -0.4087    4.7331    0.0000 N   0  0  0  0  0  0  0  0  0  0  0  0
   -2.2501    8.4777    0.0000 N   0  0  0  0  0  0  0  0  0  0  0  0
   -1.5356    7.2402    0.0000 N   0  0  0  0  0  0  0  0  0  0  0  0
   -5.1080    6.8277    0.0000 N   0  0  0  0  0  0  0  0  0  0  0  0
   -6.5369    6.0027    0.0000 O   0  0  0  0  0  0  0  0  0  0  0  0
   -1.4886    5.5178    0.0000 S   0  0  0  0  0  0  0  0  0  0  0  0
  4  2  2  0
  5  3  1  0
  7  6  1  0
 10  8  1  0
 11  9  1  0
 12  1  1  0
 13  2  1  0
 13  3  2  0
 14  4  1  0
 14  5  2  0
 15  6  1  0
 16 12  2  0
 16 15  1  0
 19 17  2  0
 20  7  2  0
 20 18  1  0
 21 12  1  0
 21 17  1  0
 22 13  1  0
 22 18  2  0
 23 15  2  0
 23 18  1  0
 24  8  1  0
 24  9  1  0
 24 14  1  0
 25 10  1  0
 25 11  1  0
 26 16  1  0
 26 17  1  0
M  END
>  <ALOGPS_LOGP>  (111) 
2.43

>  <ALOGPS_LOGS>  (111) 
-3.77

>  <ALOGPS_SOLUBILITY>  (111) 
6.20e-02 g/l

>  <DATABASE_NAME>  (111) 
drugbank

>  <DRUGBANK_ID>  (111) 
DB08219

>  <DRUG_GROUPS>  (111) 
experimental

>  <EXACT_MASS>  (111) 
368.141929982

>  <FORMULA>  (111) 
C18H20N6OS

>  <GENERIC_NAME>  (111) 
4-METHYL-5-{(2E)-2-[(4-MORPHOLIN-4-YLPHENYL)IMINO]-2,5-DIHYDROPYRIMIDIN-4-YL}-1,3-THIAZOL-2-AMINE

>  <ID>  (111) 


>  <INCHI_IDENTIFIER>  (111) 
InChI=1S/C18H20N6OS/c1-12-16(26-17(19)21-12)15-6-7-20-18(23-15)22-13-2-4-14(5-3-13)24-8-10-25-11-9-24/h2-5,7H,6,8-11H2,1H3,(H2,19,21)/b22-18-

>  <INCHI_KEY>  (111) 
RPSZSAKYXPWBRR-PYCFMQQDSA-N

>  <INTERNATIONAL_BRANDS>  (111) 
nan

>  <JCHEM_ACCEPTOR_COUNT>  (111) 
7

>  <JCHEM_ATOM_COUNT>  (111) 
nan

>  <JCHEM_AVERAGE_POLARIZABILITY>  (111) 
39.38419263612621

>  <JCHEM_BIOAVAILABILITY>  (111) 
1

>  <JCHEM_DONOR_COUNT>  (111) 
2

>  <JCHEM_FORMAL_CHARGE>  (111) 
0

>  <JCHEM_GHOSE_FILTER>  (111) 
1

>  <JCHEM_IUPAC>  (111) 
(2Z)-4-(2-imino-4-methyl-2,3-dihydro-1,3-thiazol-5-yl)-N-[4-(morpholin-4-yl)phenyl]-2,5-dihydropyrimidin-2-imine

>  <JCHEM_LOGP>  (111) 
2.438390571666667

>  <JCHEM_MDDR_LIKE_RULE>  (111) 
0

>  <JCHEM_NUMBER_OF_RINGS>  (111) 
4

>  <JCHEM_PHYSIOLOGICAL_CHARGE>  (111) 
1

>  <JCHEM_PKA>  (111) 
13.189595192662843

>  <JCHEM_PKA_STRONGEST_ACIDIC>  (111) 
10.281685315219011

>  <JCHEM_PKA_STRONGEST_BASIC>  (111) 
7.613814378999524

>  <JCHEM_POLAR_SURFACE_AREA>  (111) 
85.43

>  <JCHEM_REFRACTIVITY>  (111) 
119.10980000000002

>  <JCHEM_ROTATABLE_BOND_COUNT>  (111) 
3

>  <JCHEM_RULE_OF_FIVE>  (111) 
1

>  <JCHEM_TRADITIONAL_IUPAC>  (111) 
(2Z)-4-(2-imino-4-methyl-3H-1,3-thiazol-5-yl)-N-[4-(morpholin-4-yl)phenyl]-5H-pyrimidin-2-imine

>  <JCHEM_VEBER_RULE>  (111) 
0

>  <MOLECULAR_WEIGHT>  (111) 
368.456

>  <PRODUCTS>  (111) 
nan

>  <SALTS>  (111) 
nan

>  <SECONDARY_ACCESSION_NUMBERS>  (111) 
nan

>  <SMILES>  (111) 
CC1=C(SC(=N)N1)C1=N\C(=N/C2=CC=C(C=C2)N2CCOCC2)N=CC1

>  <SYNONYMS>  (111) 
nan

>  <ECFP_FP>  (111) 
<rdkit.DataStructs.cDataStructs.ExplicitBitVect object at 0xa26afdd50>

>  <pki_G>  (111) 
5.730059

>  <pki_D>  (111) 
5.659851

>  <pki_B>  (111) 
5.428369

>  <pki_A>  (111) 
4.823794

>  <SelB>  (111) 
0.30169

>  <SelA>  (111) 
0.906265

>  <SelD>  (111) 
0.070208

>  <AvgABSel>  (111) 
0.603978

>  <MACCS_FP>  (111) 
[0. 0. 0. 0. 0. 0. 0. 0. 0. 0. 0. 0. 0. 0. 0. 0. 0. 0. 0. 0. 0. 0. 0. 0.
 0. 1. 0. 0. 0. 0. 0. 0. 0. 0. 0. 0. 1. 0. 0. 0. 0. 0. 0. 1. 0. 0. 0. 1.
 0. 0. 0. 0. 0. 0. 0. 0. 0. 1. 0. 0. 0. 0. 1. 0. 0. 1. 0. 0. 0. 0. 0. 0.
 0. 0. 0. 1. 0. 1. 1. 0. 1. 1. 0. 1. 0. 1. 1. 0. 1. 0. 0. 1. 0. 0. 0. 1.
 1. 0. 1. 0. 1. 0. 0. 0. 0. 0. 1. 0. 1. 1. 0. 1. 0. 0. 0. 0. 0. 0. 1. 1.
 1. 1. 1. 0. 0. 1. 0. 0. 1. 1. 0. 1. 1. 1. 0. 1. 0. 1. 1. 0. 0. 0. 1. 0.
 1. 1. 0. 1. 1. 0. 1. 1. 0. 1. 0. 0. 1. 1. 1. 0. 1. 1. 1. 1. 1. 1. 0.]

>  <MACCS_pki_G>  (111) 
6.455224

>  <MACCS_pki_D>  (111) 
5.824414

>  <MACCS_pki_B>  (111) 
5.612939

>  <MACCS_pki_A>  (111) 
5.538299

>  <MACCS_SelB>  (111) 
0.842285

>  <MACCS_SelA>  (111) 
0.916925

>  <MACCS_SelD>  (111) 
0.63081

>  <MACCSAvgABSel>  (111) 
0.879605

>  <Pharm2D_FP>  (111) 
[0. 0. 0. ... 0. 0. 0.]

>  <Pharm2D_pki_G>  (111) 
6.200124

>  <Pharm2D_pki_D>  (111) 
6.194166

>  <Pharm2D_pki_B>  (111) 
5.53345

>  <Pharm2D_pki_A>  (111) 
5.54547

>  <Pharm2D_SelB>  (111) 
0.666674

>  <Pharm2D_SelA>  (111) 
0.654654

>  <Pharm2D_SelD>  (111) 
0.005958

>  <Pharm2DAvgABSel>  (111) 
0.660664

>  <QED>  (111) 
0.872089

$$$$
DB12605
     RDKit          2D

 33 34  0  0  1  0  0  0  0  0999 V2000
   -0.7145   -2.2836    0.0000 C   0  0  0  0  0  0  0  0  0  0  0  0
   -0.3020   -2.9980    0.0000 C   0  0  0  0  0  0  0  0  0  0  0  0
    0.5230   -2.9980    0.0000 C   0  0  0  0  0  0  0  0  0  0  0  0
   -0.7145   -3.7125    0.0000 C   0  0  0  0  0  0  0  0  0  0  0  0
    0.0000   -4.1250    0.0000 C   0  0  0  0  0  0  0  0  0  0  0  0
    0.7145   -3.7125    0.0000 C   0  0  0  0  0  0  0  0  0  0  0  0
    1.4289   -4.1250    0.0000 C   0  0  0  0  0  0  0  0  0  0  0  0
    2.1434   -3.7125    0.0000 N   0  0  0  0  0  0  0  0  0  0  0  0
    2.1434   -2.8875    0.0000 C   0  0  0  0  0  0  0  0  0  0  0  0
    2.8579   -4.1250    0.0000 C   0  0  0  0  0  0  0  0  0  0  0  0
    3.5724   -3.7125    0.0000 C   0  0  0  0  0  0  0  0  0  0  0  0
    4.2868   -4.1250    0.0000 C   0  0  0  0  0  0  0  0  0  0  0  0
    5.0013   -3.7125    0.0000 C   0  0  0  0  0  0  0  0  0  0  0  0
    5.7158   -4.1250    0.0000 C   0  0  0  0  0  0  0  0  0  0  0  0
    5.7158   -4.9500    0.0000 C   0  0  0  0  0  0  0  0  0  0  0  0
    5.0013   -5.3625    0.0000 C   0  0  0  0  0  0  0  0  0  0  0  0
    4.2868   -4.9500    0.0000 C   0  0  0  0  0  0  0  0  0  0  0  0
    5.0013   -6.1875    0.0000 C   0  0  0  0  0  0  0  0  0  0  0  0
    4.2868   -6.6000    0.0000 O   0  0  0  0  0  0  0  0  0  0  0  0
    5.7158   -6.6000    0.0000 O   0  0  0  0  0  0  0  0  0  0  0  0
    5.7158   -7.4250    0.0000 C   0  0  0  0  0  0  0  0  0  0  0  0
   -1.1270   -4.4270    0.0000 C   0  0  0  0  0  0  0  0  0  0  0  0
   -1.5395   -5.1414    0.0000 N   0  0  0  0  0  0  0  0  0  0  0  0
   -1.4289   -3.3000    0.0000 C   0  0  0  0  0  0  0  0  0  0  0  0
   -2.1434   -3.7125    0.0000 C   0  0  0  0  0  0  0  0  0  0  0  0
   -2.8579   -3.3000    0.0000 C   0  0  0  0  0  0  0  0  0  0  0  0
   -2.8579   -2.4750    0.0000 C   0  0  0  0  0  0  0  0  0  0  0  0
   -2.1434   -2.0625    0.0000 C   0  0  0  0  0  0  0  0  0  0  0  0
   -1.4289   -2.4750    0.0000 C   0  0  0  0  0  0  0  0  0  0  0  0
   -2.1434   -1.2375    0.0000 O   0  0  0  0  0  0  0  0  0  0  0  0
   -1.4289   -0.8250    0.0000 C   0  0  0  0  0  0  0  0  0  0  0  0
   -3.5724   -2.0625    0.0000 O   0  0  0  0  0  0  0  0  0  0  0  0
   -4.2868   -2.4750    0.0000 C   0  0  0  0  0  0  0  0  0  0  0  0
  1  2  1  0
  2  3  1  0
  2  4  1  0
  4  5  1  1
  5  6  1  0
  6  7  1  0
  7  8  1  0
  8  9  1  0
  8 10  1  0
 10 11  1  0
 11 12  1  0
 12 13  2  0
 13 14  1  0
 14 15  2  0
 15 16  1  0
 16 17  2  0
 12 17  1  0
 16 18  1  0
 18 19  2  0
 18 20  1  0
 20 21  1  0
  4 22  1  0
 22 23  3  0
  4 24  1  0
 24 25  2  0
 25 26  1  0
 26 27  2  0
 27 28  1  0
 28 29  2  0
 24 29  1  0
 28 30  1  0
 30 31  1  0
 27 32  1  0
 32 33  1  0
M  END
>  <ALOGPS_LOGP>  (112) 
4.56

>  <ALOGPS_LOGS>  (112) 
-5.17

>  <ALOGPS_SOLUBILITY>  (112) 
3.05e-03 g/l

>  <DATABASE_NAME>  (112) 
drugbank

>  <DRUGBANK_ID>  (112) 
DB12605

>  <DRUG_GROUPS>  (112) 
investigational

>  <EXACT_MASS>  (112) 
452.267507647

>  <FORMULA>  (112) 
C27H36N2O4

>  <GENERIC_NAME>  (112) 
Etripamil

>  <ID>  (112) 


>  <INCHI_IDENTIFIER>  (112) 
InChI=1S/C27H36N2O4/c1-20(2)27(19-28,23-11-12-24(31-4)25(18-23)32-5)14-8-15-29(3)16-13-21-9-7-10-22(17-21)26(30)33-6/h7,9-12,17-18,20H,8,13-16H2,1-6H3/t27-/m0/s1

>  <INCHI_KEY>  (112) 
VAZNEHLGJGSQEL-MHZLTWQESA-N

>  <INTERNATIONAL_BRANDS>  (112) 
nan

>  <JCHEM_ACCEPTOR_COUNT>  (112) 
5

>  <JCHEM_ATOM_COUNT>  (112) 
69

>  <JCHEM_AVERAGE_POLARIZABILITY>  (112) 
51.46277270474104

>  <JCHEM_BIOAVAILABILITY>  (112) 
0

>  <JCHEM_DONOR_COUNT>  (112) 
0

>  <JCHEM_FORMAL_CHARGE>  (112) 
0

>  <JCHEM_GHOSE_FILTER>  (112) 
0

>  <JCHEM_IUPAC>  (112) 
methyl 3-(2-{[(4S)-4-cyano-4-(3,4-dimethoxyphenyl)-4-(propan-2-yl)butyl](methyl)amino}ethyl)benzoate

>  <JCHEM_LOGP>  (112) 
5.3620053163333345

>  <JCHEM_MDDR_LIKE_RULE>  (112) 
0

>  <JCHEM_NUMBER_OF_RINGS>  (112) 
2

>  <JCHEM_PHYSIOLOGICAL_CHARGE>  (112) 
1

>  <JCHEM_PKA>  (112) 
nan

>  <JCHEM_PKA_STRONGEST_ACIDIC>  (112) 
nan

>  <JCHEM_PKA_STRONGEST_BASIC>  (112) 
9.521102046436395

>  <JCHEM_POLAR_SURFACE_AREA>  (112) 
71.79

>  <JCHEM_REFRACTIVITY>  (112) 
131.74679999999998

>  <JCHEM_ROTATABLE_BOND_COUNT>  (112) 
13

>  <JCHEM_RULE_OF_FIVE>  (112) 
0

>  <JCHEM_TRADITIONAL_IUPAC>  (112) 
methyl 3-(2-{[(4S)-4-cyano-4-(3,4-dimethoxyphenyl)-4-isopropylbutyl](methyl)amino}ethyl)benzoate

>  <JCHEM_VEBER_RULE>  (112) 
0

>  <MOLECULAR_WEIGHT>  (112) 
452.595

>  <PRODUCTS>  (112) 
nan

>  <SALTS>  (112) 
nan

>  <SECONDARY_ACCESSION_NUMBERS>  (112) 
nan

>  <SMILES>  (112) 
COC(=O)C1=CC(CCN(C)CCC[C@](C#N)(C(C)C)C2=CC=C(OC)C(OC)=C2)=CC=C1

>  <SYNONYMS>  (112) 
nan

>  <ECFP_FP>  (112) 
<rdkit.DataStructs.cDataStructs.ExplicitBitVect object at 0xa26c45670>

>  <pki_G>  (112) 
5.726421

>  <pki_D>  (112) 
5.975545

>  <pki_B>  (112) 
5.477075

>  <pki_A>  (112) 
5.932698

>  <SelB>  (112) 
0.249346

>  <SelA>  (112) 
-0.206277

>  <SelD>  (112) 
-0.249124

>  <AvgABSel>  (112) 
0.021535

>  <MACCS_FP>  (112) 
[0. 0. 0. 0. 0. 0. 0. 0. 0. 0. 0. 0. 0. 0. 0. 0. 0. 0. 0. 0. 0. 0. 0. 0.
 0. 0. 0. 0. 0. 0. 0. 0. 0. 0. 0. 0. 0. 0. 0. 0. 0. 1. 0. 0. 0. 0. 0. 0.
 0. 0. 0. 0. 0. 0. 0. 0. 0. 0. 0. 0. 0. 0. 0. 0. 0. 0. 1. 0. 0. 0. 0. 0.
 1. 0. 1. 0. 0. 0. 0. 0. 0. 0. 0. 0. 0. 1. 1. 0. 0. 0. 0. 0. 0. 1. 0. 0.
 0. 0. 0. 0. 1. 0. 0. 0. 0. 0. 0. 0. 1. 0. 0. 1. 1. 1. 0. 1. 1. 0. 1. 0.
 0. 0. 1. 1. 0. 1. 1. 1. 1. 1. 0. 0. 0. 0. 0. 0. 0. 0. 1. 0. 1. 1. 1. 1.
 1. 1. 1. 1. 1. 1. 1. 0. 1. 1. 1. 1. 0. 1. 1. 1. 1. 1. 1. 1. 1. 1. 0.]

>  <MACCS_pki_G>  (112) 
5.963223

>  <MACCS_pki_D>  (112) 
5.713985

>  <MACCS_pki_B>  (112) 
5.536964

>  <MACCS_pki_A>  (112) 
6.136139

>  <MACCS_SelB>  (112) 
0.426259

>  <MACCS_SelA>  (112) 
-0.172916

>  <MACCS_SelD>  (112) 
0.249238

>  <MACCSAvgABSel>  (112) 
0.126672

>  <Pharm2D_FP>  (112) 
[0. 0. 0. ... 0. 0. 0.]

>  <Pharm2D_pki_G>  (112) 
6.010657

>  <Pharm2D_pki_D>  (112) 
5.458024

>  <Pharm2D_pki_B>  (112) 
5.333464

>  <Pharm2D_pki_A>  (112) 
5.357393

>  <Pharm2D_SelB>  (112) 
0.677193

>  <Pharm2D_SelA>  (112) 
0.653265

>  <Pharm2D_SelD>  (112) 
0.552633

>  <Pharm2DAvgABSel>  (112) 
0.665229

>  <QED>  (112) 
0.428297

$$$$
DB01445
     RDKit          2D

 15 16  0  0  0  0  0  0  0  0999 V2000
    2.0930   -0.1082    0.0000 O   0  0  0  0  0  0  0  0  0  0  0  0
    6.3370    1.4693    0.0000 N   0  0  0  0  0  0  0  0  0  0  0  0
    5.0171   -1.5972    0.0000 N   0  0  0  0  0  0  0  0  0  0  0  0
    5.2734    0.5149    0.0000 C   0  0  0  0  0  0  0  0  0  0  0  0
    5.0171   -0.2693    0.0000 C   0  0  0  0  0  0  0  0  0  0  0  0
    4.2365   -0.5207    0.0000 C   0  0  0  0  0  0  0  0  0  0  0  0
    6.0807    0.6851    0.0000 C   0  0  0  0  0  0  0  0  0  0  0  0
    4.2365   -1.3457    0.0000 C   0  0  0  0  0  0  0  0  0  0  0  0
    5.4986   -0.9332    0.0000 C   0  0  0  0  0  0  0  0  0  0  0  0
    3.5220   -0.1082    0.0000 C   0  0  0  0  0  0  0  0  0  0  0  0
    3.5220   -1.7582    0.0000 C   0  0  0  0  0  0  0  0  0  0  0  0
    2.8075   -0.5207    0.0000 C   0  0  0  0  0  0  0  0  0  0  0  0
    7.1443    1.6394    0.0000 C   0  0  0  0  0  0  0  0  0  0  0  0
    5.7860    2.0833    0.0000 C   0  0  0  0  0  0  0  0  0  0  0  0
    2.8075   -1.3457    0.0000 C   0  0  0  0  0  0  0  0  0  0  0  0
  1 12  1  0
  2  7  1  0
  2 13  1  0
  2 14  1  0
  3  8  1  0
  3  9  1  0
  4  5  1  0
  4  7  1  0
  5  6  1  0
  5  9  2  0
  6  8  2  0
  6 10  1  0
  8 11  1  0
 10 12  2  0
 11 15  2  0
 12 15  1  0
M  END
>  <ALOGPS_LOGP>  (113) 
2.04

>  <ALOGPS_LOGS>  (113) 
-1.81

>  <ALOGPS_SOLUBILITY>  (113) 
3.20e+00 g/l

>  <DATABASE_NAME>  (113) 
drugbank

>  <DRUGBANK_ID>  (113) 
DB01445

>  <DRUG_GROUPS>  (113) 
experimental; illicit

>  <EXACT_MASS>  (113) 
204.126263144

>  <FORMULA>  (113) 
C12H16N2O

>  <GENERIC_NAME>  (113) 
Bufotenine

>  <ID>  (113) 
1445

>  <INCHI_IDENTIFIER>  (113) 
InChI=1S/C12H16N2O/c1-14(2)6-5-9-8-13-12-4-3-10(15)7-11(9)12/h3-4,7-8,13,15H,5-6H2,1-2H3

>  <INCHI_KEY>  (113) 
VTTONGPRPXSUTJ-UHFFFAOYSA-N

>  <INTERNATIONAL_BRANDS>  (113) 
nan

>  <JCHEM_ACCEPTOR_COUNT>  (113) 
2

>  <JCHEM_ATOM_COUNT>  (113) 
nan

>  <JCHEM_AVERAGE_POLARIZABILITY>  (113) 
23.290220670309544

>  <JCHEM_BIOAVAILABILITY>  (113) 
1

>  <JCHEM_DONOR_COUNT>  (113) 
2

>  <JCHEM_FORMAL_CHARGE>  (113) 
0

>  <JCHEM_GHOSE_FILTER>  (113) 
1

>  <JCHEM_IUPAC>  (113) 
3-[2-(dimethylamino)ethyl]-1H-indol-5-ol

>  <JCHEM_LOGP>  (113) 
1.2922694904624674

>  <JCHEM_MDDR_LIKE_RULE>  (113) 
0

>  <JCHEM_NUMBER_OF_RINGS>  (113) 
2

>  <JCHEM_PHYSIOLOGICAL_CHARGE>  (113) 
1

>  <JCHEM_PKA>  (113) 
18.218197203699578

>  <JCHEM_PKA_STRONGEST_ACIDIC>  (113) 
9.232412171709068

>  <JCHEM_PKA_STRONGEST_BASIC>  (113) 
9.910793391467232

>  <JCHEM_POLAR_SURFACE_AREA>  (113) 
39.26

>  <JCHEM_REFRACTIVITY>  (113) 
62.423100000000005

>  <JCHEM_ROTATABLE_BOND_COUNT>  (113) 
3

>  <JCHEM_RULE_OF_FIVE>  (113) 
1

>  <JCHEM_TRADITIONAL_IUPAC>  (113) 
bufotenine

>  <JCHEM_VEBER_RULE>  (113) 
1

>  <MOLECULAR_WEIGHT>  (113) 
204.2682

>  <PRODUCTS>  (113) 
nan

>  <SALTS>  (113) 
nan

>  <SECONDARY_ACCESSION_NUMBERS>  (113) 
nan

>  <SMILES>  (113) 
CN(C)CCC1=CNC2=C1C=C(O)C=C2

>  <SYNONYMS>  (113) 
3-[2-(dimethylamino)ethyl]-5-indolol; 3-[2-(dimethylamino)ethyl]indol-5-ol; 3-[β-(dimethylamino)ethyl]-5-hydroxyindole; 5-hydroxy-N,N-dimethyltryptamine; Bufotenin; DM5-HT; N,N-dimethylserotonin

>  <ECFP_FP>  (113) 
<rdkit.DataStructs.cDataStructs.ExplicitBitVect object at 0xa2668da30>

>  <pki_G>  (113) 
5.725678

>  <pki_D>  (113) 
5.765952

>  <pki_B>  (113) 
5.524014

>  <pki_A>  (113) 
5.452729

>  <SelB>  (113) 
0.201665

>  <SelA>  (113) 
0.27295

>  <SelD>  (113) 
-0.040274

>  <AvgABSel>  (113) 
0.237307

>  <MACCS_FP>  (113) 
[0. 0. 0. 0. 0. 0. 0. 0. 0. 0. 0. 0. 0. 0. 0. 0. 0. 0. 0. 0. 0. 0. 0. 0.
 0. 0. 0. 0. 0. 0. 0. 0. 0. 0. 0. 0. 0. 0. 0. 0. 0. 0. 0. 0. 0. 0. 0. 0.
 0. 0. 0. 0. 0. 0. 0. 0. 0. 0. 0. 0. 0. 0. 0. 0. 0. 1. 0. 0. 0. 0. 0. 0.
 0. 0. 1. 0. 0. 0. 0. 0. 0. 0. 0. 1. 0. 1. 1. 0. 0. 0. 1. 1. 0. 1. 0. 0.
 1. 0. 0. 0. 1. 1. 0. 0. 0. 1. 0. 0. 0. 0. 0. 1. 0. 1. 0. 1. 1. 0. 1. 0.
 0. 1. 1. 0. 0. 1. 0. 1. 0. 0. 0. 1. 0. 0. 0. 0. 0. 1. 0. 1. 0. 0. 1. 1.
 0. 0. 0. 1. 1. 1. 0. 1. 1. 1. 0. 1. 1. 1. 1. 0. 1. 1. 1. 1. 1. 1. 0.]

>  <MACCS_pki_G>  (113) 
5.750689

>  <MACCS_pki_D>  (113) 
5.964637

>  <MACCS_pki_B>  (113) 
5.506255

>  <MACCS_pki_A>  (113) 
5.74856

>  <MACCS_SelB>  (113) 
0.244433

>  <MACCS_SelA>  (113) 
0.002129

>  <MACCS_SelD>  (113) 
-0.213949

>  <MACCSAvgABSel>  (113) 
0.123281

>  <Pharm2D_FP>  (113) 
[0. 0. 0. ... 0. 0. 0.]

>  <Pharm2D_pki_G>  (113) 
6.024494

>  <Pharm2D_pki_D>  (113) 
5.50845

>  <Pharm2D_pki_B>  (113) 
5.352532

>  <Pharm2D_pki_A>  (113) 
5.325566

>  <Pharm2D_SelB>  (113) 
0.671962

>  <Pharm2D_SelA>  (113) 
0.698928

>  <Pharm2D_SelD>  (113) 
0.516044

>  <Pharm2DAvgABSel>  (113) 
0.685445

>  <QED>  (113) 
0.802066

$$$$
DB03392
     RDKit          2D

 18 18  0  0  1  0  0  0  0  0999 V2000
   -1.2375   -0.9355    0.0000 C   0  0  0  0  0  0  0  0  0  0  0  0
   -1.4289   -1.6500    0.0000 C   0  0  0  0  0  0  0  0  0  0  0  0
    2.1434    1.2375    0.0000 C   0  0  0  0  0  0  0  0  0  0  0  0
    1.4289    0.8250    0.0000 C   0  0  0  0  0  0  0  0  0  0  0  0
    0.7145    1.2375    0.0000 C   0  0  0  0  0  0  0  0  0  0  0  0
    0.0000    0.8250    0.0000 C   0  0  0  0  0  0  0  0  0  0  0  0
    0.0000    0.0000    0.0000 C   0  0  0  0  0  0  0  0  0  0  0  0
    0.7145   -0.4125    0.0000 C   0  0  0  0  0  0  0  0  0  0  0  0
    0.7145   -1.2375    0.0000 N   0  0  0  0  0  0  0  0  0  0  0  0
    2.1434    2.0625    0.0000 O   0  0  0  0  0  0  0  0  0  0  0  0
    0.7145    2.0625    0.0000 O   0  0  0  0  0  0  0  0  0  0  0  0
   -0.7145    1.2375    0.0000 O   0  0  0  0  0  0  0  0  0  0  0  0
   -0.7145   -0.4125    0.0000 O   0  0  0  0  0  0  0  0  0  0  0  0
    0.4125   -2.3645    0.0000 O   0  0  0  0  0  0  0  0  0  0  0  0
   -0.4125   -0.9355    0.0000 O   0  0  0  0  0  0  0  0  0  0  0  0
   -0.7145   -2.0625    0.0000 O   0  0  0  0  0  0  0  0  0  0  0  0
    1.4289   -0.0000    0.0000 O   0  0  0  0  0  0  0  0  0  0  0  0
   -0.0000   -1.6500    0.0000 P   0  0  0  0  0  0  0  0  0  0  0  0
  4  3  1  1
  5  4  1  0
  6  5  1  0
  7  6  1  0
  8  7  1  0
  8  9  1  1
 10  3  1  0
  5 11  1  6
  6 12  1  1
  7 13  1  6
 15  1  1  0
 16  2  1  0
 17  4  1  0
 17  8  1  0
 18  9  1  0
 18 14  2  0
 18 15  1  0
 18 16  1  0
M  END
>  <ALOGPS_LOGP>  (114) 
-2.26

>  <ALOGPS_LOGS>  (114) 
-0.95

>  <ALOGPS_SOLUBILITY>  (114) 
3.26e+01 g/l

>  <DATABASE_NAME>  (114) 
drugbank

>  <DRUGBANK_ID>  (114) 
DB03392

>  <DRUG_GROUPS>  (114) 
experimental

>  <EXACT_MASS>  (114) 
287.077003069

>  <FORMULA>  (114) 
C8H18NO8P

>  <GENERIC_NAME>  (114) 
(3,4,5-Trihydroxy-6-Hydroxymethyl-Tetrahydro-Pyran-2-Yl)-Phosphoramidic Acid Dimethyl Ester

>  <ID>  (114) 


>  <INCHI_IDENTIFIER>  (114) 
InChI=1S/C8H18NO8P/c1-15-18(14,16-2)9-8-7(13)6(12)5(11)4(3-10)17-8/h4-8,10-13H,3H2,1-2H3,(H,9,14)/t4-,5-,6+,7-,8-/m1/s1

>  <INCHI_KEY>  (114) 
LJBUJRWZZYUNKX-JAJWTYFOSA-N

>  <INTERNATIONAL_BRANDS>  (114) 
nan

>  <JCHEM_ACCEPTOR_COUNT>  (114) 
6

>  <JCHEM_ATOM_COUNT>  (114) 
nan

>  <JCHEM_AVERAGE_POLARIZABILITY>  (114) 
24.6803066758818

>  <JCHEM_BIOAVAILABILITY>  (114) 
1

>  <JCHEM_DONOR_COUNT>  (114) 
5

>  <JCHEM_FORMAL_CHARGE>  (114) 
0

>  <JCHEM_GHOSE_FILTER>  (114) 
0

>  <JCHEM_IUPAC>  (114) 
(2R,3R,4S,5S,6R)-2-[(dimethoxyphosphoryl)amino]-6-(hydroxymethyl)oxane-3,4,5-triol

>  <JCHEM_LOGP>  (114) 
-3.0293444080000005

>  <JCHEM_MDDR_LIKE_RULE>  (114) 
0

>  <JCHEM_NUMBER_OF_RINGS>  (114) 
1

>  <JCHEM_PHYSIOLOGICAL_CHARGE>  (114) 
0

>  <JCHEM_PKA>  (114) 
13.0033994241073

>  <JCHEM_PKA_STRONGEST_ACIDIC>  (114) 
12.331853685038148

>  <JCHEM_PKA_STRONGEST_BASIC>  (114) 
-2.9802568579608586

>  <JCHEM_POLAR_SURFACE_AREA>  (114) 
137.71

>  <JCHEM_REFRACTIVITY>  (114) 
57.710699999999996

>  <JCHEM_ROTATABLE_BOND_COUNT>  (114) 
5

>  <JCHEM_RULE_OF_FIVE>  (114) 
1

>  <JCHEM_TRADITIONAL_IUPAC>  (114) 
(2R,3R,4S,5S,6R)-2-[(dimethoxyphosphoryl)amino]-6-(hydroxymethyl)oxane-3,4,5-triol

>  <JCHEM_VEBER_RULE>  (114) 
0

>  <MOLECULAR_WEIGHT>  (114) 
287.2042

>  <PRODUCTS>  (114) 
nan

>  <SALTS>  (114) 
nan

>  <SECONDARY_ACCESSION_NUMBERS>  (114) 
EXPT01599

>  <SMILES>  (114) 
[H][C@]1(O)[C@]([H])(O)[C@@]([H])(CO)O[C@@]([H])(NP(=O)(OC)OC)[C@]1([H])O

>  <SYNONYMS>  (114) 
nan

>  <ECFP_FP>  (114) 
<rdkit.DataStructs.cDataStructs.ExplicitBitVect object at 0xa267d3580>

>  <pki_G>  (114) 
5.72486

>  <pki_D>  (114) 
5.892162

>  <pki_B>  (114) 
5.338042

>  <pki_A>  (114) 
5.567626

>  <SelB>  (114) 
0.386818

>  <SelA>  (114) 
0.157234

>  <SelD>  (114) 
-0.167302

>  <AvgABSel>  (114) 
0.272026

>  <MACCS_FP>  (114) 
[0. 0. 0. 0. 0. 0. 0. 0. 0. 0. 0. 0. 0. 0. 0. 0. 0. 0. 0. 0. 0. 0. 0. 0.
 0. 0. 0. 0. 0. 1. 0. 0. 0. 0. 0. 0. 0. 0. 0. 0. 0. 0. 0. 0. 0. 0. 0. 0.
 1. 0. 0. 0. 0. 1. 1. 0. 0. 1. 0. 0. 0. 0. 0. 0. 0. 0. 0. 0. 0. 1. 0. 0.
 1. 0. 0. 0. 0. 0. 0. 0. 0. 0. 1. 0. 0. 0. 0. 0. 0. 1. 1. 1. 1. 1. 1. 1.
 0. 1. 1. 0. 0. 0. 1. 0. 0. 0. 1. 0. 0. 1. 1. 0. 1. 0. 0. 0. 0. 1. 0. 0.
 0. 0. 0. 0. 1. 0. 1. 1. 0. 0. 1. 1. 1. 1. 0. 0. 0. 1. 0. 1. 1. 0. 0. 1.
 0. 0. 1. 0. 1. 1. 1. 1. 1. 1. 0. 1. 1. 1. 1. 1. 1. 1. 0. 1. 1. 1. 0.]

>  <MACCS_pki_G>  (114) 
6.433073

>  <MACCS_pki_D>  (114) 
5.707738

>  <MACCS_pki_B>  (114) 
5.73008

>  <MACCS_pki_A>  (114) 
5.68

>  <MACCS_SelB>  (114) 
0.702993

>  <MACCS_SelA>  (114) 
0.753073

>  <MACCS_SelD>  (114) 
0.725335

>  <MACCSAvgABSel>  (114) 
0.728033

>  <Pharm2D_FP>  (114) 
[0. 0. 0. ... 0. 0. 0.]

>  <Pharm2D_pki_G>  (114) 
5.825474

>  <Pharm2D_pki_D>  (114) 
5.692769

>  <Pharm2D_pki_B>  (114) 
5.395952

>  <Pharm2D_pki_A>  (114) 
4.846609

>  <Pharm2D_SelB>  (114) 
0.429522

>  <Pharm2D_SelA>  (114) 
0.978864

>  <Pharm2D_SelD>  (114) 
0.132704

>  <Pharm2DAvgABSel>  (114) 
0.704193

>  <QED>  (114) 
0.355708

$$$$
DB02819
     RDKit          2D

 23 25  0  0  1  0  0  0  0  0999 V2000
    4.7079   -0.4125    0.0000 C   0  0  0  0  0  0  0  0  0  0  0  0
    3.9934    0.8250    0.0000 C   0  0  0  0  0  0  0  0  0  0  0  0
    3.2789    1.2375    0.0000 C   0  0  0  0  0  0  0  0  0  0  0  0
    3.2789   -0.4125    0.0000 C   0  0  0  0  0  0  0  0  0  0  0  0
    1.7798    3.9841    0.0000 C   0  0  0  0  0  0  0  0  0  0  0  0
    1.2949    0.4125    0.0000 C   0  0  0  0  0  0  0  0  0  0  0  0
    3.9934    0.0000    0.0000 C   0  0  0  0  0  0  0  0  0  0  0  0
    2.5645    0.0000    0.0000 C   0  0  0  0  0  0  0  0  0  0  0  0
    2.5645    0.8250    0.0000 C   0  0  0  0  0  0  0  0  0  0  0  0
    1.5249    3.1994    0.0000 C   0  0  0  0  0  0  0  0  0  0  0  0
    0.7403    2.9445    0.0000 C   0  0  0  0  0  0  0  0  0  0  0  0
    0.7403    2.1195    0.0000 C   0  0  0  0  0  0  0  0  0  0  0  0
    1.5249    1.8646    0.0000 C   0  0  0  0  0  0  0  0  0  0  0  0
    1.7798   -0.2549    0.0000 N   0  0  0  0  0  0  0  0  0  0  0  0
    1.7798    1.0799    0.0000 N   0  0  0  0  0  0  0  0  0  0  0  0
    0.0728    3.4294    0.0000 O   0  0  0  0  0  0  0  0  0  0  0  0
    0.0728    1.6346    0.0000 O   0  0  0  0  0  0  0  0  0  0  0  0
    3.0967    5.7248    0.0000 O   0  0  0  0  0  0  0  0  0  0  0  0
    3.6264    4.6853    0.0000 O   0  0  0  0  0  0  0  0  0  0  0  0
    2.0571    5.1951    0.0000 O   0  0  0  0  0  0  0  0  0  0  0  0
    2.5868    4.1556    0.0000 O   0  0  0  0  0  0  0  0  0  0  0  0
    2.0098    2.5320    0.0000 O   0  0  0  0  0  0  0  0  0  0  0  0
    2.8417    4.9402    0.0000 P   0  0  0  0  0  0  0  0  0  0  0  0
  3  2  2  0
  7  1  1  0
  7  2  1  0
  7  4  2  0
  8  4  1  0
  9  3  1  0
  9  8  2  0
 10  5  1  1
 11 10  1  0
 12 11  1  0
 13 12  1  0
 14  6  2  0
 14  8  1  0
 15  6  1  0
 15  9  1  0
 13 15  1  6
 11 16  1  6
 12 17  1  6
 21  5  1  0
 22 10  1  0
 22 13  1  0
 23 18  1  0
 23 19  1  0
 23 20  2  0
 23 21  1  0
M  END
>  <ALOGPS_LOGP>  (115) 
-0.58

>  <ALOGPS_LOGS>  (115) 
-2.28

>  <ALOGPS_SOLUBILITY>  (115) 
1.82e+00 g/l

>  <DATABASE_NAME>  (115) 
drugbank

>  <DRUGBANK_ID>  (115) 
DB02819

>  <DRUG_GROUPS>  (115) 
experimental

>  <EXACT_MASS>  (115) 
344.07733742

>  <FORMULA>  (115) 
C13H17N2O7P

>  <GENERIC_NAME>  (115) 
Mono-[3,4-Dihydroxy-5-(5-Methyl-Benzoimidazol-1-Yl)-Tetrahydor-Furan-2-Ylmethyl] Ester

>  <ID>  (115) 


>  <INCHI_IDENTIFIER>  (115) 
InChI=1S/C13H17N2O7P/c1-7-2-3-9-8(4-7)14-6-15(9)13-12(17)11(16)10(22-13)5-21-23(18,19)20/h2-4,6,10-13,16-17H,5H2,1H3,(H2,18,19,20)/t10-,11-,12-,13+/m1/s1

>  <INCHI_KEY>  (115) 
HGUDFQQPANTQEU-LPWJVIDDSA-N

>  <INTERNATIONAL_BRANDS>  (115) 
nan

>  <JCHEM_ACCEPTOR_COUNT>  (115) 
7

>  <JCHEM_ATOM_COUNT>  (115) 
nan

>  <JCHEM_AVERAGE_POLARIZABILITY>  (115) 
31.860075456723415

>  <JCHEM_BIOAVAILABILITY>  (115) 
1

>  <JCHEM_DONOR_COUNT>  (115) 
4

>  <JCHEM_FORMAL_CHARGE>  (115) 
0

>  <JCHEM_GHOSE_FILTER>  (115) 
0

>  <JCHEM_IUPAC>  (115) 
{[(2R,3S,4R,5S)-3,4-dihydroxy-5-(5-methyl-1H-1,3-benzodiazol-1-yl)oxolan-2-yl]methoxy}phosphonic acid

>  <JCHEM_LOGP>  (115) 
-1.9427658907052934

>  <JCHEM_MDDR_LIKE_RULE>  (115) 
0

>  <JCHEM_NUMBER_OF_RINGS>  (115) 
3

>  <JCHEM_PHYSIOLOGICAL_CHARGE>  (115) 
-2

>  <JCHEM_PKA>  (115) 
6.3799807244083215

>  <JCHEM_PKA_STRONGEST_ACIDIC>  (115) 
1.2246932198544709

>  <JCHEM_PKA_STRONGEST_BASIC>  (115) 
5.661751763645786

>  <JCHEM_POLAR_SURFACE_AREA>  (115) 
134.27

>  <JCHEM_REFRACTIVITY>  (115) 
77.47889999999998

>  <JCHEM_ROTATABLE_BOND_COUNT>  (115) 
4

>  <JCHEM_RULE_OF_FIVE>  (115) 
1

>  <JCHEM_TRADITIONAL_IUPAC>  (115) 
[(2R,3S,4R,5S)-3,4-dihydroxy-5-(5-methyl-1,3-benzodiazol-1-yl)oxolan-2-yl]methoxyphosphonic acid

>  <JCHEM_VEBER_RULE>  (115) 
0

>  <MOLECULAR_WEIGHT>  (115) 
344.257

>  <PRODUCTS>  (115) 
nan

>  <SALTS>  (115) 
nan

>  <SECONDARY_ACCESSION_NUMBERS>  (115) 
EXPT02793

>  <SMILES>  (115) 
[H][C@]1(COP(O)(O)=O)O[C@]([H])(N2C=NC3=C2C=CC(C)=C3)[C@]([H])(O)[C@]1([H])O

>  <SYNONYMS>  (115) 
nan

>  <ECFP_FP>  (115) 
<rdkit.DataStructs.cDataStructs.ExplicitBitVect object at 0xa2676fb70>

>  <pki_G>  (115) 
5.721745

>  <pki_D>  (115) 
5.665362

>  <pki_B>  (115) 
5.371224

>  <pki_A>  (115) 
5.201873

>  <SelB>  (115) 
0.350521

>  <SelA>  (115) 
0.519872

>  <SelD>  (115) 
0.056383

>  <AvgABSel>  (115) 
0.435196

>  <MACCS_FP>  (115) 
[0. 0. 0. 0. 0. 0. 0. 0. 0. 0. 0. 0. 0. 0. 0. 0. 0. 0. 0. 0. 0. 0. 0. 0.
 0. 0. 0. 0. 0. 1. 0. 0. 0. 0. 0. 0. 0. 0. 0. 0. 0. 0. 0. 1. 0. 0. 0. 0.
 1. 0. 0. 0. 0. 0. 1. 0. 0. 1. 0. 0. 0. 0. 1. 0. 0. 1. 0. 0. 0. 1. 0. 0.
 1. 0. 0. 1. 0. 1. 0. 1. 0. 0. 0. 1. 0. 1. 0. 0. 0. 1. 1. 1. 1. 0. 0. 1.
 1. 1. 0. 0. 0. 1. 1. 0. 0. 1. 1. 0. 0. 1. 1. 0. 1. 0. 0. 0. 0. 1. 0. 0.
 1. 1. 1. 0. 1. 1. 1. 1. 0. 0. 1. 1. 1. 1. 0. 0. 0. 1. 0. 1. 1. 0. 1. 1.
 0. 0. 1. 0. 1. 0. 1. 0. 1. 1. 0. 1. 1. 1. 1. 1. 1. 1. 1. 1. 1. 1. 0.]

>  <MACCS_pki_G>  (115) 
6.396071

>  <MACCS_pki_D>  (115) 
5.719321

>  <MACCS_pki_B>  (115) 
5.712699

>  <MACCS_pki_A>  (115) 
5.523333

>  <MACCS_SelB>  (115) 
0.683371

>  <MACCS_SelA>  (115) 
0.872738

>  <MACCS_SelD>  (115) 
0.67675

>  <MACCSAvgABSel>  (115) 
0.778055

>  <Pharm2D_FP>  (115) 
[0. 0. 0. ... 0. 0. 0.]

>  <Pharm2D_pki_G>  (115) 
5.713335

>  <Pharm2D_pki_D>  (115) 
5.685861

>  <Pharm2D_pki_B>  (115) 
5.522893

>  <Pharm2D_pki_A>  (115) 
5.564886

>  <Pharm2D_SelB>  (115) 
0.190442

>  <Pharm2D_SelA>  (115) 
0.14845

>  <Pharm2D_SelD>  (115) 
0.027474

>  <Pharm2DAvgABSel>  (115) 
0.169446

>  <QED>  (115) 
0.572706

$$$$
DB13673
     RDKit          2D

 33 35  0  0  1  0  0  0  0  0999 V2000
   -0.0000    3.3000    0.0000 C   0  0  0  0  0  0  0  0  0  0  0  0
   -0.7145    6.1875    0.0000 C   0  0  0  0  0  0  0  0  0  0  0  0
   -3.5724    1.2375    0.0000 C   0  0  0  0  0  0  0  0  0  0  0  0
   -0.7145    3.7125    0.0000 C   0  0  0  0  0  0  0  0  0  0  0  0
   -0.0000    2.4750    0.0000 C   0  0  0  0  0  0  0  0  0  0  0  0
   -1.4289    5.7750    0.0000 C   0  0  0  0  0  0  0  0  0  0  0  0
   -2.8579    0.8250    0.0000 C   0  0  0  0  0  0  0  0  0  0  0  0
   -2.1434   -0.4125    0.0000 C   0  0  0  0  0  0  0  0  0  0  0  0
   -2.8579    4.9500    0.0000 C   0  0  0  0  0  0  0  0  0  0  0  0
   -2.8579    0.0000    0.0000 C   0  0  0  0  0  0  0  0  0  0  0  0
   -2.1434    6.1875    0.0000 C   0  0  0  0  0  0  0  0  0  0  0  0
   -2.8579    5.7750    0.0000 C   0  0  0  0  0  0  0  0  0  0  0  0
   -1.4289   -0.0000    0.0000 C   0  0  0  0  0  0  0  0  0  0  0  0
   -1.4289    2.4750    0.0000 C   0  0  0  0  0  0  0  0  0  0  0  0
   -1.4289    3.3000    0.0000 C   0  0  0  0  0  0  0  0  0  0  0  0
   -0.7145    2.0625    0.0000 C   0  0  0  0  0  0  0  0  0  0  0  0
   -2.1434    4.5375    0.0000 C   0  0  0  0  0  0  0  0  0  0  0  0
   -1.4289    0.8250    0.0000 C   0  0  0  0  0  0  0  0  0  0  0  0
   -0.7145    7.0125    0.0000 N   0  0  0  0  0  0  0  0  0  0  0  0
   -0.7145    4.5375    0.0000 N   0  0  0  0  0  0  0  0  0  0  0  0
    0.7145    2.0625    0.0000 N   0  0  0  0  0  0  0  0  0  0  0  0
   -2.1434   -1.2375    0.0000 N   0  0  0  0  0  0  0  0  0  0  0  0
   -3.5724    4.5375    0.0000 N   0  0  0  0  0  0  0  0  0  0  0  0
   -3.5724    2.0625    0.0000 O   0  0  0  0  0  0  0  0  0  0  0  0
   -3.5724   -0.4125    0.0000 O   0  0  0  0  0  0  0  0  0  0  0  0
   -2.1434    7.0125    0.0000 O   0  0  0  0  0  0  0  0  0  0  0  0
   -3.5724    6.1875    0.0000 O   0  0  0  0  0  0  0  0  0  0  0  0
   -0.7145   -0.4125    0.0000 O   0  0  0  0  0  0  0  0  0  0  0  0
   -2.1434    2.0625    0.0000 O   0  0  0  0  0  0  0  0  0  0  0  0
   -1.4289    4.9500    0.0000 O   0  0  0  0  0  0  0  0  0  0  0  0
   -2.1434    1.2375    0.0000 O   0  0  0  0  0  0  0  0  0  0  0  0
   -2.1434    3.7125    0.0000 O   0  0  0  0  0  0  0  0  0  0  0  0
   -0.7145    1.2375    0.0000 O   0  0  0  0  0  0  0  0  0  0  0  0
  4  1  1  0
  5  1  1  0
  6  2  1  1
  7  3  1  1
 10  7  1  0
 10  8  1  0
 11  6  1  0
 12  9  1  0
 12 11  1  0
 13  8  1  0
 15  4  1  0
 15 14  1  0
 16  5  1  0
 16 14  1  0
 17  9  1  0
 18 13  1  0
 19  2  1  0
  4 20  1  1
  5 21  1  1
  8 22  1  1
  9 23  1  6
 24  3  1  0
 10 25  1  6
 11 26  1  6
 12 27  1  1
 13 28  1  6
 14 29  1  1
 30  6  1  0
 30 17  1  0
 31  7  1  0
 31 18  1  0
 15 32  1  6
 17 32  1  6
 16 33  1  6
 18 33  1  6
M  END
>  <ALOGPS_LOGP>  (116) 
-3.01

>  <ALOGPS_LOGS>  (116) 
-0.80

>  <ALOGPS_SOLUBILITY>  (116) 
7.59e+01 g/l

>  <DATABASE_NAME>  (116) 
drugbank

>  <DRUGBANK_ID>  (116) 
DB13673

>  <DRUG_GROUPS>  (116) 
experimental

>  <EXACT_MASS>  (116) 
483.254042429

>  <FORMULA>  (116) 
C18H37N5O10

>  <GENERIC_NAME>  (116) 
Bekanamycin

>  <ID>  (116) 


>  <INCHI_IDENTIFIER>  (116) 
InChI=1S/C18H37N5O10/c19-2-6-11(26)12(27)9(23)17(30-6)32-15-4(20)1-5(21)16(14(15)29)33-18-13(28)8(22)10(25)7(3-24)31-18/h4-18,24-29H,1-3,19-23H2/t4-,5+,6+,7+,8-,9+,10+,11+,12+,13+,14-,15+,16-,17+,18+/m0/s1

>  <INCHI_KEY>  (116) 
SKKLOUVUUNMCJE-FQSMHNGLSA-N

>  <INTERNATIONAL_BRANDS>  (116) 
nan

>  <JCHEM_ACCEPTOR_COUNT>  (116) 
15

>  <JCHEM_ATOM_COUNT>  (116) 
nan

>  <JCHEM_AVERAGE_POLARIZABILITY>  (116) 
47.71634365313935

>  <JCHEM_BIOAVAILABILITY>  (116) 
0

>  <JCHEM_DONOR_COUNT>  (116) 
11

>  <JCHEM_FORMAL_CHARGE>  (116) 
0

>  <JCHEM_GHOSE_FILTER>  (116) 
0

>  <JCHEM_IUPAC>  (116) 
(2S,3R,4S,5S,6R)-4-amino-2-{[(1S,2S,3R,4S,6R)-4,6-diamino-3-{[(2R,3R,4R,5S,6R)-3-amino-6-(aminomethyl)-4,5-dihydroxyoxan-2-yl]oxy}-2-hydroxycyclohexyl]oxy}-6-(hydroxymethyl)oxane-3,5-diol

>  <JCHEM_LOGP>  (116) 
-7.167795245666667

>  <JCHEM_MDDR_LIKE_RULE>  (116) 
1

>  <JCHEM_NUMBER_OF_RINGS>  (116) 
3

>  <JCHEM_PHYSIOLOGICAL_CHARGE>  (116) 
5

>  <JCHEM_PKA>  (116) 
13.004888165599127

>  <JCHEM_PKA_STRONGEST_ACIDIC>  (116) 
12.488072502607203

>  <JCHEM_PKA_STRONGEST_BASIC>  (116) 
9.760920681985683

>  <JCHEM_POLAR_SURFACE_AREA>  (116) 
288.4

>  <JCHEM_REFRACTIVITY>  (116) 
107.79199999999999

>  <JCHEM_ROTATABLE_BOND_COUNT>  (116) 
6

>  <JCHEM_RULE_OF_FIVE>  (116) 
0

>  <JCHEM_TRADITIONAL_IUPAC>  (116) 
(2S,3R,4S,5S,6R)-4-amino-2-{[(1S,2S,3R,4S,6R)-4,6-diamino-3-{[(2R,3R,4R,5S,6R)-3-amino-6-(aminomethyl)-4,5-dihydroxyoxan-2-yl]oxy}-2-hydroxycyclohexyl]oxy}-6-(hydroxymethyl)oxane-3,5-diol

>  <JCHEM_VEBER_RULE>  (116) 
0

>  <MOLECULAR_WEIGHT>  (116) 
483.5139

>  <PRODUCTS>  (116) 
nan

>  <SALTS>  (116) 
nan

>  <SECONDARY_ACCESSION_NUMBERS>  (116) 
nan

>  <SMILES>  (116) 
[H][C@]1(N)C[C@@]([H])(N)[C@]([H])(O[C@@]2([H])O[C@]([H])(CO)[C@@]([H])(O)[C@]([H])(N)[C@@]2([H])O)[C@@]([H])(O)[C@]1([H])O[C@@]1([H])O[C@]([H])(CN)[C@@]([H])(O)[C@]([H])(O)[C@@]1([H])N

>  <SYNONYMS>  (116) 
nan

>  <ECFP_FP>  (116) 
<rdkit.DataStructs.cDataStructs.ExplicitBitVect object at 0xa26ccff30>

>  <pki_G>  (116) 
5.719137

>  <pki_D>  (116) 
5.862512

>  <pki_B>  (116) 
5.481317

>  <pki_A>  (116) 
5.022814

>  <SelB>  (116) 
0.23782

>  <SelA>  (116) 
0.696323

>  <SelD>  (116) 
-0.143375

>  <AvgABSel>  (116) 
0.467072

>  <MACCS_FP>  (116) 
[0. 0. 0. 0. 0. 0. 0. 0. 0. 0. 0. 0. 0. 0. 0. 0. 0. 0. 0. 0. 0. 0. 0. 0.
 0. 0. 0. 0. 0. 0. 0. 0. 0. 0. 0. 0. 0. 0. 0. 0. 0. 0. 0. 0. 0. 0. 0. 0.
 0. 0. 0. 0. 0. 1. 1. 0. 0. 1. 0. 0. 0. 0. 0. 0. 0. 0. 0. 0. 0. 0. 0. 0.
 1. 0. 0. 0. 0. 0. 0. 0. 1. 0. 1. 0. 1. 0. 0. 0. 0. 1. 1. 1. 0. 0. 0. 1.
 0. 1. 1. 0. 1. 0. 0. 0. 1. 0. 0. 0. 0. 1. 0. 1. 0. 0. 0. 0. 0. 0. 0. 0.
 1. 0. 0. 1. 0. 0. 1. 1. 0. 0. 0. 1. 1. 1. 0. 0. 0. 1. 1. 1. 1. 0. 1. 1.
 0. 1. 1. 0. 0. 0. 1. 1. 1. 1. 0. 1. 1. 1. 1. 1. 0. 1. 0. 1. 1. 1. 0.]

>  <MACCS_pki_G>  (116) 
6.198538

>  <MACCS_pki_D>  (116) 
5.858533

>  <MACCS_pki_B>  (116) 
6.113452

>  <MACCS_pki_A>  (116) 
6.041834

>  <MACCS_SelB>  (116) 
0.085086

>  <MACCS_SelA>  (116) 
0.156704

>  <MACCS_SelD>  (116) 
0.340005

>  <MACCSAvgABSel>  (116) 
0.120895

>  <Pharm2D_FP>  (116) 
[0. 0. 0. ... 0. 0. 0.]

>  <Pharm2D_pki_G>  (116) 
6.586306

>  <Pharm2D_pki_D>  (116) 
5.906264

>  <Pharm2D_pki_B>  (116) 
5.720499

>  <Pharm2D_pki_A>  (116) 
5.128721

>  <Pharm2D_SelB>  (116) 
0.865807

>  <Pharm2D_SelA>  (116) 
1.457586

>  <Pharm2D_SelD>  (116) 
0.680043

>  <Pharm2DAvgABSel>  (116) 
1.161697

>  <QED>  (116) 
0.167134

$$$$
DB13340
     RDKit          2D

 23 23  0  0  1  0  0  0  0  0999 V2000
    2.1434   -6.1875    0.0000 C   0  0  0  0  0  0  0  0  0  0  0  0
    2.8579   -6.6000    0.0000 C   0  0  0  0  0  0  0  0  0  0  0  0
    3.5724   -6.1875    0.0000 C   0  0  0  0  0  0  0  0  0  0  0  0
    4.2868   -6.6000    0.0000 C   0  0  0  0  0  0  0  0  0  0  0  0
    5.0013   -6.1875    0.0000 C   0  0  0  0  0  0  0  0  0  0  0  0
    5.7158   -6.6000    0.0000 C   0  0  0  0  0  0  0  0  0  0  0  0
    6.4302   -6.1875    0.0000 C   0  0  0  0  0  0  0  0  0  0  0  0
    7.1447   -6.6000    0.0000 C   0  0  0  0  0  0  0  0  0  0  0  0
    7.8592   -6.1875    0.0000 N   0  0  0  0  0  0  0  0  0  0  0  0
    8.5737   -6.6000    0.0000 C   0  0  0  0  0  0  0  0  0  0  0  0
    8.5737   -7.4250    0.0000 C   0  0  0  0  0  0  0  0  0  0  0  0
    9.2881   -6.1875    0.0000 C   0  0  0  0  0  0  0  0  0  0  0  0
   10.0026   -6.6000    0.0000 C   0  0  0  0  0  0  0  0  0  0  0  0
   10.7171   -6.1875    0.0000 C   0  0  0  0  0  0  0  0  0  0  0  0
   11.4315   -6.6000    0.0000 C   0  0  0  0  0  0  0  0  0  0  0  0
   11.4315   -7.4250    0.0000 C   0  0  0  0  0  0  0  0  0  0  0  0
   10.7171   -7.8375    0.0000 C   0  0  0  0  0  0  0  0  0  0  0  0
   10.0026   -7.4250    0.0000 C   0  0  0  0  0  0  0  0  0  0  0  0
   12.1460   -7.8375    0.0000 S   0  0  0  0  0  0  0  0  0  0  0  0
   12.1460   -8.6625    0.0000 C   0  0  0  0  0  0  0  0  0  0  0  0
   12.8605   -9.0750    0.0000 C   0  0  0  0  0  0  0  0  0  0  0  0
   11.4315   -9.0750    0.0000 C   0  0  0  0  0  0  0  0  0  0  0  0
    9.2881   -5.3625    0.0000 O   0  0  0  0  0  0  0  0  0  0  0  0
  1  2  1  0
  2  3  1  0
  3  4  1  0
  4  5  1  0
  5  6  1  0
  6  7  1  0
  7  8  1  0
  8  9  1  0
  9 10  1  0
 10 11  1  6
 10 12  1  0
 12 13  1  0
 13 14  2  0
 14 15  1  0
 15 16  2  0
 16 17  1  0
 17 18  2  0
 13 18  1  0
 16 19  1  0
 19 20  1  0
 20 21  1  0
 20 22  1  0
 12 23  1  6
M  END
>  <ALOGPS_LOGP>  (117) 
5.54

>  <ALOGPS_LOGS>  (117) 
-5.54

>  <ALOGPS_SOLUBILITY>  (117) 
9.74e-04 g/l

>  <DATABASE_NAME>  (117) 
drugbank

>  <DRUGBANK_ID>  (117) 
DB13340

>  <DRUG_GROUPS>  (117) 
experimental

>  <EXACT_MASS>  (117) 
337.243935925

>  <FORMULA>  (117) 
C20H35NOS

>  <GENERIC_NAME>  (117) 
Suloctidil

>  <ID>  (117) 


>  <INCHI_IDENTIFIER>  (117) 
InChI=1S/C20H35NOS/c1-5-6-7-8-9-10-15-21-17(4)20(22)18-11-13-19(14-12-18)23-16(2)3/h11-14,16-17,20-22H,5-10,15H2,1-4H3/t17-,20-/m0/s1

>  <INCHI_KEY>  (117) 
BFCDFTHTSVTWOG-PXNSSMCTSA-N

>  <INTERNATIONAL_BRANDS>  (117) 
nan

>  <JCHEM_ACCEPTOR_COUNT>  (117) 
2

>  <JCHEM_ATOM_COUNT>  (117) 
58

>  <JCHEM_AVERAGE_POLARIZABILITY>  (117) 
43.08102034151466

>  <JCHEM_BIOAVAILABILITY>  (117) 
0

>  <JCHEM_DONOR_COUNT>  (117) 
2

>  <JCHEM_FORMAL_CHARGE>  (117) 
0

>  <JCHEM_GHOSE_FILTER>  (117) 
0

>  <JCHEM_IUPAC>  (117) 
(1R,2S)-2-(octylamino)-1-[4-(propan-2-ylsulfanyl)phenyl]propan-1-ol

>  <JCHEM_LOGP>  (117) 
5.614052592

>  <JCHEM_MDDR_LIKE_RULE>  (117) 
0

>  <JCHEM_NUMBER_OF_RINGS>  (117) 
1

>  <JCHEM_PHYSIOLOGICAL_CHARGE>  (117) 
1

>  <JCHEM_PKA>  (117) 
nan

>  <JCHEM_PKA_STRONGEST_ACIDIC>  (117) 
13.866874221452711

>  <JCHEM_PKA_STRONGEST_BASIC>  (117) 
9.758033483096842

>  <JCHEM_POLAR_SURFACE_AREA>  (117) 
32.26

>  <JCHEM_REFRACTIVITY>  (117) 
103.98960000000001

>  <JCHEM_ROTATABLE_BOND_COUNT>  (117) 
12

>  <JCHEM_RULE_OF_FIVE>  (117) 
0

>  <JCHEM_TRADITIONAL_IUPAC>  (117) 
(1R,2S)-1-[4-(isopropylsulfanyl)phenyl]-2-(octylamino)propan-1-ol

>  <JCHEM_VEBER_RULE>  (117) 
0

>  <MOLECULAR_WEIGHT>  (117) 
337.57

>  <PRODUCTS>  (117) 
nan

>  <SALTS>  (117) 
nan

>  <SECONDARY_ACCESSION_NUMBERS>  (117) 
nan

>  <SMILES>  (117) 
CCCCCCCCN[C@@H](C)[C@H](O)C1=CC=C(SC(C)C)C=C1

>  <SYNONYMS>  (117) 
nan

>  <ECFP_FP>  (117) 
<rdkit.DataStructs.cDataStructs.ExplicitBitVect object at 0xa26ca3350>

>  <pki_G>  (117) 
5.717452

>  <pki_D>  (117) 
5.87424

>  <pki_B>  (117) 
5.486086

>  <pki_A>  (117) 
5.634734

>  <SelB>  (117) 
0.231366

>  <SelA>  (117) 
0.082718

>  <SelD>  (117) 
-0.156788

>  <AvgABSel>  (117) 
0.157042

>  <MACCS_FP>  (117) 
[0. 0. 0. 0. 0. 0. 0. 0. 0. 0. 0. 0. 0. 0. 0. 0. 0. 0. 0. 0. 0. 0. 0. 0.
 0. 0. 0. 0. 0. 0. 0. 0. 0. 0. 0. 0. 0. 0. 0. 0. 0. 0. 0. 0. 0. 0. 0. 0.
 0. 0. 0. 0. 0. 0. 1. 0. 0. 0. 0. 1. 0. 0. 0. 0. 1. 0. 0. 0. 0. 0. 0. 0.
 0. 0. 1. 0. 0. 0. 0. 0. 0. 1. 1. 0. 0. 0. 0. 0. 1. 0. 1. 1. 0. 0. 0. 1.
 0. 0. 0. 0. 1. 0. 0. 0. 1. 0. 0. 0. 1. 0. 0. 1. 0. 0. 1. 1. 1. 0. 1. 0.
 0. 0. 0. 0. 0. 0. 0. 0. 1. 1. 0. 1. 0. 0. 0. 0. 0. 0. 0. 1. 0. 1. 0. 0.
 0. 0. 0. 1. 0. 1. 0. 1. 1. 1. 0. 1. 1. 1. 1. 0. 1. 1. 1. 1. 1. 1. 0.]

>  <MACCS_pki_G>  (117) 
5.903665

>  <MACCS_pki_D>  (117) 
5.925386

>  <MACCS_pki_B>  (117) 
6.022536

>  <MACCS_pki_A>  (117) 
5.784944

>  <MACCS_SelB>  (117) 
-0.118871

>  <MACCS_SelA>  (117) 
0.11872

>  <MACCS_SelD>  (117) 
-0.021721

>  <MACCSAvgABSel>  (117) 
-0.000075

>  <Pharm2D_FP>  (117) 
[0. 0. 0. ... 0. 0. 0.]

>  <Pharm2D_pki_G>  (117) 
6.133383

>  <Pharm2D_pki_D>  (117) 
5.442766

>  <Pharm2D_pki_B>  (117) 
5.352473

>  <Pharm2D_pki_A>  (117) 
4.702182

>  <Pharm2D_SelB>  (117) 
0.78091

>  <Pharm2D_SelA>  (117) 
1.431202

>  <Pharm2D_SelD>  (117) 
0.690618

>  <Pharm2DAvgABSel>  (117) 
1.106056

>  <QED>  (117) 
0.386747

$$$$
DB01664
     RDKit          2D

 12 12  0  0  1  0  0  0  0  0999 V2000
    1.5783    2.2433    0.0000 N   0  0  0  0  0  0  0  0  0  0  0  0
    2.1913    1.6913    0.0000 C   0  0  0  0  0  0  0  0  0  0  0  0
    2.0198    0.8843    0.0000 C   0  0  0  0  0  0  0  0  0  0  0  0
    1.2352    0.6294    0.0000 C   0  0  0  0  0  0  0  0  0  0  0  0
    0.9803   -0.1553    0.0000 C   0  0  0  0  0  0  0  0  0  0  0  0
    0.1553   -0.1553    0.0000 O   0  0  0  0  0  0  0  0  0  0  0  0
   -0.0997    0.6294    0.0000 N   0  0  0  0  0  0  0  0  0  0  0  0
    0.5678    1.1143    0.0000 C   0  0  0  0  0  0  0  0  0  0  0  0
    0.5678    1.9393    0.0000 O   0  0  0  0  0  0  0  0  0  0  0  0
    2.9760    1.9462    0.0000 C   0  0  0  0  0  0  0  0  0  0  0  0
    3.1475    2.7532    0.0000 O   0  0  0  0  0  0  0  0  0  0  0  0
    3.5891    1.3942    0.0000 O   0  0  0  0  0  0  0  0  0  0  0  0
  2  1  1  6
  2  3  1  0
  3  4  1  0
  4  5  2  0
  5  6  1  0
  6  7  1  0
  7  8  1  0
  4  8  1  0
  8  9  2  0
  2 10  1  0
 10 11  1  0
 10 12  2  0
M  END
>  <ALOGPS_LOGP>  (118) 
-2.79

>  <ALOGPS_LOGS>  (118) 
-0.55

>  <ALOGPS_SOLUBILITY>  (118) 
4.89e+01 g/l

>  <DATABASE_NAME>  (118) 
drugbank

>  <DRUGBANK_ID>  (118) 
DB01664

>  <DRUG_GROUPS>  (118) 
experimental

>  <EXACT_MASS>  (118) 
172.048406754

>  <FORMULA>  (118) 
C6H8N2O4

>  <GENERIC_NAME>  (118) 
(S)-DES-ME-AMPA

>  <ID>  (118) 


>  <INCHI_IDENTIFIER>  (118) 
InChI=1S/C6H8N2O4/c7-4(6(10)11)1-3-2-12-8-5(3)9/h2,4H,1,7H2,(H,8,9)(H,10,11)/t4-/m0/s1

>  <INCHI_KEY>  (118) 
ZKLGQYGPVBFAQQ-BYPYZUCNSA-N

>  <INTERNATIONAL_BRANDS>  (118) 
nan

>  <JCHEM_ACCEPTOR_COUNT>  (118) 
5

>  <JCHEM_ATOM_COUNT>  (118) 
nan

>  <JCHEM_AVERAGE_POLARIZABILITY>  (118) 
15.0139966998982

>  <JCHEM_BIOAVAILABILITY>  (118) 
1

>  <JCHEM_DONOR_COUNT>  (118) 
3

>  <JCHEM_FORMAL_CHARGE>  (118) 
0

>  <JCHEM_GHOSE_FILTER>  (118) 
0

>  <JCHEM_IUPAC>  (118) 
(2S)-2-amino-3-(3-oxo-2,3-dihydro-1,2-oxazol-4-yl)propanoic acid

>  <JCHEM_LOGP>  (118) 
-3.6391579879102625

>  <JCHEM_MDDR_LIKE_RULE>  (118) 
0

>  <JCHEM_NUMBER_OF_RINGS>  (118) 
1

>  <JCHEM_PHYSIOLOGICAL_CHARGE>  (118) 
-1

>  <JCHEM_PKA>  (118) 
6.215105450366236

>  <JCHEM_PKA_STRONGEST_ACIDIC>  (118) 
1.7733954382309038

>  <JCHEM_PKA_STRONGEST_BASIC>  (118) 
9.362304958067226

>  <JCHEM_POLAR_SURFACE_AREA>  (118) 
101.65

>  <JCHEM_REFRACTIVITY>  (118) 
37.451100000000004

>  <JCHEM_ROTATABLE_BOND_COUNT>  (118) 
3

>  <JCHEM_RULE_OF_FIVE>  (118) 
1

>  <JCHEM_TRADITIONAL_IUPAC>  (118) 
(S)-des-me-ampa

>  <JCHEM_VEBER_RULE>  (118) 
0

>  <MOLECULAR_WEIGHT>  (118) 
172.1387

>  <PRODUCTS>  (118) 
nan

>  <SALTS>  (118) 
nan

>  <SECONDARY_ACCESSION_NUMBERS>  (118) 
EXPT02903

>  <SMILES>  (118) 
N[C@@H](CC1=CONC1=O)C(O)=O

>  <SYNONYMS>  (118) 
(S)-2-amino-3-(3-hydroxy-isoxazol-4-yl)propionic acid

>  <ECFP_FP>  (118) 
<rdkit.DataStructs.cDataStructs.ExplicitBitVect object at 0xa266b9440>

>  <pki_G>  (118) 
5.717231

>  <pki_D>  (118) 
5.708195

>  <pki_B>  (118) 
5.272979

>  <pki_A>  (118) 
5.374679

>  <SelB>  (118) 
0.444253

>  <SelA>  (118) 
0.342552

>  <SelD>  (118) 
0.009036

>  <AvgABSel>  (118) 
0.393402

>  <MACCS_FP>  (118) 
[0. 0. 0. 0. 0. 0. 0. 0. 0. 0. 0. 0. 0. 0. 0. 0. 0. 0. 0. 0. 0. 0. 0. 0.
 0. 0. 0. 0. 0. 0. 0. 0. 0. 0. 0. 0. 0. 0. 0. 0. 0. 0. 0. 0. 0. 0. 0. 0.
 0. 0. 0. 0. 0. 0. 1. 0. 0. 1. 0. 0. 0. 0. 0. 0. 0. 1. 0. 0. 0. 1. 0. 1.
 1. 0. 0. 0. 0. 0. 0. 0. 0. 0. 0. 1. 1. 0. 0. 0. 0. 1. 1. 1. 1. 0. 1. 1.
 1. 1. 0. 0. 0. 0. 1. 0. 1. 0. 0. 0. 0. 0. 1. 1. 0. 1. 0. 0. 0. 1. 0. 0.
 1. 1. 0. 1. 1. 0. 0. 1. 0. 0. 0. 1. 0. 0. 0. 0. 1. 1. 0. 1. 1. 0. 1. 1.
 1. 0. 1. 0. 0. 0. 1. 1. 0. 0. 1. 1. 1. 1. 1. 1. 0. 1. 1. 0. 1. 1. 0.]

>  <MACCS_pki_G>  (118) 
6.149741

>  <MACCS_pki_D>  (118) 
5.642724

>  <MACCS_pki_B>  (118) 
5.555911

>  <MACCS_pki_A>  (118) 
5.313039

>  <MACCS_SelB>  (118) 
0.593831

>  <MACCS_SelA>  (118) 
0.836703

>  <MACCS_SelD>  (118) 
0.507017

>  <MACCSAvgABSel>  (118) 
0.715267

>  <Pharm2D_FP>  (118) 
[0. 0. 0. ... 0. 0. 0.]

>  <Pharm2D_pki_G>  (118) 
5.825474

>  <Pharm2D_pki_D>  (118) 
5.657822

>  <Pharm2D_pki_B>  (118) 
5.456885

>  <Pharm2D_pki_A>  (118) 
4.732484

>  <Pharm2D_SelB>  (118) 
0.368589

>  <Pharm2D_SelA>  (118) 
1.092989

>  <Pharm2D_SelD>  (118) 
0.167652

>  <Pharm2DAvgABSel>  (118) 
0.730789

>  <QED>  (118) 
0.53696

$$$$
DB13597
     RDKit          2D

 12 12  0  0  0  0  0  0  0  0999 V2000
    1.4289    0.8250    0.0000 C   0  0  0  0  0  0  0  0  0  0  0  0
    1.4289   -0.0000    0.0000 C   0  0  0  0  0  0  0  0  0  0  0  0
    0.7145   -0.4125    0.0000 O   0  0  0  0  0  0  0  0  0  0  0  0
    0.0000   -0.0000    0.0000 C   0  0  0  0  0  0  0  0  0  0  0  0
    0.0000    0.8250    0.0000 C   0  0  0  0  0  0  0  0  0  0  0  0
    0.7145    1.2375    0.0000 N   0  0  0  0  0  0  0  0  0  0  0  0
    0.7145    2.0625    0.0000 C   0  0  0  0  0  0  0  0  0  0  0  0
    1.4289    2.4750    0.0000 N   0  0  0  0  0  0  0  0  0  0  0  0
   -0.0000    2.4750    0.0000 N   0  0  0  0  0  0  0  0  0  0  0  0
   -0.0000    3.3000    0.0000 C   0  0  0  0  0  0  0  0  0  0  0  0
   -0.7145    3.7125    0.0000 N   0  0  0  0  0  0  0  0  0  0  0  0
    0.7145    3.7125    0.0000 N   0  0  0  0  0  0  0  0  0  0  0  0
  1  2  1  0
  2  3  1  0
  3  4  1  0
  4  5  1  0
  5  6  1  0
  1  6  1  0
  6  7  1  0
  7  8  2  0
  7  9  1  0
  9 10  1  0
 10 11  2  0
 10 12  1  0
M  END
>  <ALOGPS_LOGP>  (119) 
-1.51

>  <ALOGPS_LOGS>  (119) 
-2.08

>  <ALOGPS_SOLUBILITY>  (119) 
1.41e+00 g/l

>  <DATABASE_NAME>  (119) 
drugbank

>  <DRUGBANK_ID>  (119) 
DB13597

>  <DRUG_GROUPS>  (119) 
experimental

>  <EXACT_MASS>  (119) 
171.112010059

>  <FORMULA>  (119) 
C6H13N5O

>  <GENERIC_NAME>  (119) 
Moroxydine

>  <ID>  (119) 


>  <INCHI_IDENTIFIER>  (119) 
InChI=1S/C6H13N5O/c7-5(8)10-6(9)11-1-3-12-4-2-11/h1-4H2,(H5,7,8,9,10)

>  <INCHI_KEY>  (119) 
KJHOZAZQWVKILO-UHFFFAOYSA-N

>  <INTERNATIONAL_BRANDS>  (119) 
nan

>  <JCHEM_ACCEPTOR_COUNT>  (119) 
6

>  <JCHEM_ATOM_COUNT>  (119) 
25

>  <JCHEM_AVERAGE_POLARIZABILITY>  (119) 
17.318751819384133

>  <JCHEM_BIOAVAILABILITY>  (119) 
1

>  <JCHEM_DONOR_COUNT>  (119) 
4

>  <JCHEM_FORMAL_CHARGE>  (119) 
0

>  <JCHEM_GHOSE_FILTER>  (119) 
0

>  <JCHEM_IUPAC>  (119) 
N-(morpholine-4-carboximidoyl)guanidine

>  <JCHEM_LOGP>  (119) 
-1.1369297166666665

>  <JCHEM_MDDR_LIKE_RULE>  (119) 
0

>  <JCHEM_NUMBER_OF_RINGS>  (119) 
1

>  <JCHEM_PHYSIOLOGICAL_CHARGE>  (119) 
2

>  <JCHEM_PKA>  (119) 
nan

>  <JCHEM_PKA_STRONGEST_ACIDIC>  (119) 
nan

>  <JCHEM_PKA_STRONGEST_BASIC>  (119) 
11.847864629763572

>  <JCHEM_POLAR_SURFACE_AREA>  (119) 
98.22

>  <JCHEM_REFRACTIVITY>  (119) 
65.7172

>  <JCHEM_ROTATABLE_BOND_COUNT>  (119) 
0

>  <JCHEM_RULE_OF_FIVE>  (119) 
1

>  <JCHEM_TRADITIONAL_IUPAC>  (119) 
virustat

>  <JCHEM_VEBER_RULE>  (119) 
0

>  <MOLECULAR_WEIGHT>  (119) 
171.204

>  <PRODUCTS>  (119) 
nan

>  <SALTS>  (119) 
nan

>  <SECONDARY_ACCESSION_NUMBERS>  (119) 
nan

>  <SMILES>  (119) 
NC(=N)NC(=N)N1CCOCC1

>  <SYNONYMS>  (119) 
nan

>  <ECFP_FP>  (119) 
<rdkit.DataStructs.cDataStructs.ExplicitBitVect object at 0xa26cc1f80>

>  <pki_G>  (119) 
5.716675

>  <pki_D>  (119) 
5.846034

>  <pki_B>  (119) 
5.456053

>  <pki_A>  (119) 
5.278079

>  <SelB>  (119) 
0.260622

>  <SelA>  (119) 
0.438596

>  <SelD>  (119) 
-0.12936

>  <AvgABSel>  (119) 
0.349609

>  <MACCS_FP>  (119) 
[0. 0. 0. 0. 0. 0. 0. 0. 0. 0. 0. 0. 0. 0. 0. 0. 0. 0. 0. 0. 0. 0. 0. 0.
 0. 1. 0. 0. 0. 0. 0. 0. 0. 0. 0. 0. 0. 0. 0. 0. 0. 0. 0. 1. 0. 0. 0. 0.
 0. 0. 0. 0. 0. 1. 0. 0. 0. 1. 0. 0. 0. 0. 0. 0. 0. 0. 0. 0. 0. 0. 0. 0.
 0. 0. 0. 1. 0. 1. 1. 0. 1. 0. 0. 0. 1. 1. 1. 0. 0. 0. 1. 1. 0. 0. 0. 1.
 0. 0. 1. 0. 1. 0. 0. 0. 0. 0. 1. 0. 0. 1. 0. 1. 0. 0. 0. 0. 0. 0. 1. 1.
 1. 1. 1. 0. 0. 0. 0. 0. 1. 1. 0. 1. 1. 0. 0. 0. 0. 1. 1. 0. 0. 0. 1. 0.
 0. 0. 0. 1. 1. 0. 0. 1. 0. 1. 0. 0. 1. 1. 1. 0. 0. 1. 0. 1. 1. 1. 0.]

>  <MACCS_pki_G>  (119) 
6.312528

>  <MACCS_pki_D>  (119) 
5.809482

>  <MACCS_pki_B>  (119) 
5.784285

>  <MACCS_pki_A>  (119) 
5.363754

>  <MACCS_SelB>  (119) 
0.528244

>  <MACCS_SelA>  (119) 
0.948774

>  <MACCS_SelD>  (119) 
0.503047

>  <MACCSAvgABSel>  (119) 
0.738509

>  <Pharm2D_FP>  (119) 
[0. 0. 0. ... 0. 0. 0.]

>  <Pharm2D_pki_G>  (119) 
5.736474

>  <Pharm2D_pki_D>  (119) 
5.912768

>  <Pharm2D_pki_B>  (119) 
5.38022

>  <Pharm2D_pki_A>  (119) 
4.650697

>  <Pharm2D_SelB>  (119) 
0.356254

>  <Pharm2D_SelA>  (119) 
1.085777

>  <Pharm2D_SelD>  (119) 
-0.176294

>  <Pharm2DAvgABSel>  (119) 
0.721015

>  <QED>  (119) 
0.269806

$$$$
DB08839
     RDKit          2D

 13 14  0  0  0  0  0  0  0  0999 V2000
    2.2339    0.6269    0.0000 N   0  0  0  0  0  0  0  0  0  0  0  0
    1.6208    0.0749    0.0000 C   0  0  0  0  0  0  0  0  0  0  0  0
    0.8362    0.3298    0.0000 C   0  0  0  0  0  0  0  0  0  0  0  0
    0.2231   -0.2222    0.0000 C   0  0  0  0  0  0  0  0  0  0  0  0
    0.3093   -1.0427    0.0000 C   0  0  0  0  0  0  0  0  0  0  0  0
   -0.4444   -1.3783    0.0000 N   0  0  0  0  0  0  0  0  0  0  0  0
   -0.9964   -0.7652    0.0000 C   0  0  0  0  0  0  0  0  0  0  0  0
   -1.8214   -0.7652    0.0000 C   0  0  0  0  0  0  0  0  0  0  0  0
   -2.2339   -0.0507    0.0000 C   0  0  0  0  0  0  0  0  0  0  0  0
   -1.8214    0.6638    0.0000 C   0  0  0  0  0  0  0  0  0  0  0  0
   -2.2339    1.3783    0.0000 O   0  0  0  0  0  0  0  0  0  0  0  0
   -0.9964    0.6638    0.0000 C   0  0  0  0  0  0  0  0  0  0  0  0
   -0.5839   -0.0507    0.0000 C   0  0  0  0  0  0  0  0  0  0  0  0
  1  2  1  0
  2  3  1  0
  3  4  1  0
  4  5  2  0
  5  6  1  0
  6  7  1  0
  7  8  2  0
  8  9  1  0
  9 10  2  0
 10 11  1  0
 10 12  1  0
 12 13  2  0
  4 13  1  0
  7 13  1  0
M  END
>  <ALOGPS_LOGP>  (120) 
0.56

>  <ALOGPS_LOGS>  (120) 
-1.85

>  <ALOGPS_SOLUBILITY>  (120) 
2.50e+00 g/l

>  <DATABASE_NAME>  (120) 
drugbank

>  <DRUGBANK_ID>  (120) 
DB08839

>  <DRUG_GROUPS>  (120) 
investigational; nutraceutical

>  <EXACT_MASS>  (120) 
176.094963016

>  <FORMULA>  (120) 
C10H12N2O

>  <GENERIC_NAME>  (120) 
Serotonin

>  <ID>  (120) 
Sialyllactose.mol

>  <INCHI_IDENTIFIER>  (120) 
InChI=1S/C10H12N2O/c11-4-3-7-6-12-10-2-1-8(13)5-9(7)10/h1-2,5-6,12-13H,3-4,11H2

>  <INCHI_KEY>  (120) 
QZAYGJVTTNCVMB-UHFFFAOYSA-N

>  <INTERNATIONAL_BRANDS>  (120) 
5-HTP; HTP Calm; Natural 5-HTP; Seotonin; Super 5-HTP

>  <JCHEM_ACCEPTOR_COUNT>  (120) 
2

>  <JCHEM_ATOM_COUNT>  (120) 
nan

>  <JCHEM_AVERAGE_POLARIZABILITY>  (120) 
19.31341691256239

>  <JCHEM_BIOAVAILABILITY>  (120) 
1

>  <JCHEM_DONOR_COUNT>  (120) 
3

>  <JCHEM_FORMAL_CHARGE>  (120) 
0

>  <JCHEM_GHOSE_FILTER>  (120) 
1

>  <JCHEM_IUPAC>  (120) 
3-(2-aminoethyl)-1H-indol-5-ol

>  <JCHEM_LOGP>  (120) 
0.48154800923293156

>  <JCHEM_MDDR_LIKE_RULE>  (120) 
0

>  <JCHEM_NUMBER_OF_RINGS>  (120) 
2

>  <JCHEM_PHYSIOLOGICAL_CHARGE>  (120) 
1

>  <JCHEM_PKA>  (120) 
18.223535339159515

>  <JCHEM_PKA_STRONGEST_ACIDIC>  (120) 
9.314034178077875

>  <JCHEM_PKA_STRONGEST_BASIC>  (120) 
10.004289627293197

>  <JCHEM_POLAR_SURFACE_AREA>  (120) 
62.040000000000006

>  <JCHEM_REFRACTIVITY>  (120) 
52.3538

>  <JCHEM_ROTATABLE_BOND_COUNT>  (120) 
2

>  <JCHEM_RULE_OF_FIVE>  (120) 
1

>  <JCHEM_TRADITIONAL_IUPAC>  (120) 
serotonin

>  <JCHEM_VEBER_RULE>  (120) 
0

>  <MOLECULAR_WEIGHT>  (120) 
176.2151

>  <PRODUCTS>  (120) 
nan

>  <SALTS>  (120) 
Serotonin hydrochloride

>  <SECONDARY_ACCESSION_NUMBERS>  (120) 
nan

>  <SMILES>  (120) 
NCCC1=CNC2=CC=C(O)C=C12

>  <SYNONYMS>  (120) 
3-(2-Aminoethyl)-1H-indol-5-ol; 5-HT; 5-Hydroxytryptamine; Enteramine; sérotonine; thrombocytin; thrombotonin

>  <ECFP_FP>  (120) 
<rdkit.DataStructs.cDataStructs.ExplicitBitVect object at 0xa26b5d760>

>  <pki_G>  (120) 
5.715916

>  <pki_D>  (120) 
5.774286

>  <pki_B>  (120) 
5.58733

>  <pki_A>  (120) 
5.234494

>  <SelB>  (120) 
0.128586

>  <SelA>  (120) 
0.481422

>  <SelD>  (120) 
-0.058369

>  <AvgABSel>  (120) 
0.305004

>  <MACCS_FP>  (120) 
[0. 0. 0. 0. 0. 0. 0. 0. 0. 0. 0. 0. 0. 0. 0. 0. 0. 0. 0. 0. 0. 0. 0. 0.
 0. 0. 0. 0. 0. 0. 0. 0. 0. 0. 0. 0. 0. 0. 0. 0. 0. 0. 0. 0. 0. 0. 0. 0.
 0. 0. 0. 0. 0. 0. 0. 0. 0. 0. 0. 0. 0. 0. 0. 0. 0. 1. 0. 0. 0. 0. 0. 0.
 0. 0. 0. 0. 0. 0. 0. 0. 0. 0. 1. 1. 1. 0. 0. 0. 0. 0. 1. 1. 0. 0. 0. 0.
 1. 0. 0. 0. 1. 1. 0. 0. 1. 1. 0. 0. 0. 0. 0. 1. 0. 1. 0. 0. 0. 0. 1. 0.
 0. 1. 0. 0. 0. 1. 0. 1. 0. 0. 0. 1. 0. 0. 0. 0. 0. 1. 0. 1. 0. 0. 1. 1.
 0. 0. 0. 1. 0. 0. 0. 1. 1. 1. 0. 1. 1. 1. 1. 0. 0. 1. 1. 1. 1. 1. 0.]

>  <MACCS_pki_G>  (120) 
5.870433

>  <MACCS_pki_D>  (120) 
5.978699

>  <MACCS_pki_B>  (120) 
5.909114

>  <MACCS_pki_A>  (120) 
5.806143

>  <MACCS_SelB>  (120) 
-0.038681

>  <MACCS_SelA>  (120) 
0.064289

>  <MACCS_SelD>  (120) 
-0.108267

>  <MACCSAvgABSel>  (120) 
0.012804

>  <Pharm2D_FP>  (120) 
[0. 0. 0. ... 0. 0. 0.]

>  <Pharm2D_pki_G>  (120) 
6.024494

>  <Pharm2D_pki_D>  (120) 
5.478065

>  <Pharm2D_pki_B>  (120) 
5.352532

>  <Pharm2D_pki_A>  (120) 
5.436804

>  <Pharm2D_SelB>  (120) 
0.671962

>  <Pharm2D_SelA>  (120) 
0.58769

>  <Pharm2D_SelD>  (120) 
0.546429

>  <Pharm2DAvgABSel>  (120) 
0.629826

>  <QED>  (120) 
0.646845

$$$$
DB02597
     RDKit          2D

 26 26  0  0  0  0  0  0  0  0999 V2000
   -1.8422    1.1000    0.0000 S   0  0  0  0  0  0  0  0  0  0  0  0
   -1.5144    0.3429    0.0000 C   0  0  0  0  0  0  0  0  0  0  0  0
   -2.0061   -0.3195    0.0000 C   0  0  0  0  0  0  0  0  0  0  0  0
   -2.8257   -0.2249    0.0000 C   0  0  0  0  0  0  0  0  0  0  0  0
   -3.3174   -0.8874    0.0000 C   0  0  0  0  0  0  0  0  0  0  0  0
   -4.1370   -0.7927    0.0000 C   0  0  0  0  0  0  0  0  0  0  0  0
   -4.6287   -1.4552    0.0000 C   0  0  0  0  0  0  0  0  0  0  0  0
   -0.6948    0.2483    0.0000 C   0  0  0  0  0  0  0  0  0  0  0  0
   -0.3670   -0.5088    0.0000 O   0  0  0  0  0  0  0  0  0  0  0  0
   -0.2031    0.9107    0.0000 N   0  0  0  0  0  0  0  0  0  0  0  0
    0.6165    0.8161    0.0000 C   0  0  0  0  0  0  0  0  0  0  0  0
    1.1082    1.4785    0.0000 C   0  0  0  0  0  0  0  0  0  0  0  0
    1.9277    1.3839    0.0000 C   0  0  0  0  0  0  0  0  0  0  0  0
    2.4195    2.0463    0.0000 C   0  0  0  0  0  0  0  0  0  0  0  0
    2.2556    0.6268    0.0000 C   0  0  0  0  0  0  0  0  0  0  0  0
    3.2390    1.9517    0.0000 C   0  0  0  0  0  0  0  0  0  0  0  0
    3.0751    0.5322    0.0000 C   0  0  0  0  0  0  0  0  0  0  0  0
    3.5669    1.1946    0.0000 C   0  0  0  0  0  0  0  0  0  0  0  0
    0.9443    0.0590    0.0000 C   0  0  0  0  0  0  0  0  0  0  0  0
    0.4525   -0.6035    0.0000 O   0  0  0  0  0  0  0  0  0  0  0  0
    1.7638   -0.0356    0.0000 N   0  0  0  0  0  0  0  0  0  0  0  0
    2.0917   -0.7927    0.0000 C   0  0  0  0  0  0  0  0  0  0  0  0
    1.5999   -1.4552    0.0000 C   0  0  0  0  0  0  0  0  0  0  0  0
    2.9112   -0.8874    0.0000 C   0  0  0  0  0  0  0  0  0  0  0  0
    3.4029   -0.2249    0.0000 O   0  0  0  0  0  0  0  0  0  0  0  0
    3.2390   -1.6444    0.0000 O   0  0  0  0  0  0  0  0  0  0  0  0
  2  1  1  6
  2  3  1  0
  2  8  1  0
  3  4  1  0
  4  5  1  0
  5  6  1  0
  6  7  1  0
  8  9  2  0
  8 10  1  0
 11 10  1  0
 11 12  1  1
 11 19  1  0
 12 13  1  0
 13 14  2  0
 13 15  1  0
 14 16  1  0
 15 17  2  0
 16 18  2  0
 17 18  1  0
 19 20  2  0
 19 21  1  0
 21 22  1  0
 22 23  1  6
 22 24  1  0
 24 25  2  0
 24 26  1  0
M  END
>  <ALOGPS_LOGP>  (121) 
3.23

>  <ALOGPS_LOGS>  (121) 
-4.56

>  <ALOGPS_SOLUBILITY>  (121) 
1.04e-02 g/l

>  <DATABASE_NAME>  (121) 
drugbank

>  <DRUGBANK_ID>  (121) 
DB02597

>  <DRUG_GROUPS>  (121) 
experimental

>  <EXACT_MASS>  (121) 
380.176978084

>  <FORMULA>  (121) 
C19H28N2O4S

>  <GENERIC_NAME>  (121) 
[2(R,S)-2-Sulfanylheptanoyl]-Phe-Ala

>  <ID>  (121) 
TI1

>  <INCHI_IDENTIFIER>  (121) 
InChI=1S/C19H28N2O4S/c1-3-4-6-11-16(26)18(23)21-15(12-14-9-7-5-8-10-14)17(22)20-13(2)19(24)25/h5,7-10,13,15-16,26H,3-4,6,11-12H2,1-2H3,(H,20,22)(H,21,23)(H,24,25)/t13-,15-,16-/m0/s1

>  <INCHI_KEY>  (121) 
GOIYKVXXGCPHQU-BPUTZDHNSA-N

>  <INTERNATIONAL_BRANDS>  (121) 
nan

>  <JCHEM_ACCEPTOR_COUNT>  (121) 
4

>  <JCHEM_ATOM_COUNT>  (121) 
nan

>  <JCHEM_AVERAGE_POLARIZABILITY>  (121) 
41.189033078446954

>  <JCHEM_BIOAVAILABILITY>  (121) 
1

>  <JCHEM_DONOR_COUNT>  (121) 
4

>  <JCHEM_FORMAL_CHARGE>  (121) 
0

>  <JCHEM_GHOSE_FILTER>  (121) 
1

>  <JCHEM_IUPAC>  (121) 
(2S)-2-[(2S)-3-phenyl-2-[(2S)-2-sulfanylheptanamido]propanamido]propanoic acid

>  <JCHEM_LOGP>  (121) 
3.0115007123333326

>  <JCHEM_MDDR_LIKE_RULE>  (121) 
0

>  <JCHEM_NUMBER_OF_RINGS>  (121) 
1

>  <JCHEM_PHYSIOLOGICAL_CHARGE>  (121) 
-1

>  <JCHEM_PKA>  (121) 
9.319279329140812

>  <JCHEM_PKA_STRONGEST_ACIDIC>  (121) 
3.8254248584967767

>  <JCHEM_PKA_STRONGEST_BASIC>  (121) 
-3.434922828740578

>  <JCHEM_POLAR_SURFACE_AREA>  (121) 
95.50000000000001

>  <JCHEM_REFRACTIVITY>  (121) 
102.50760000000001

>  <JCHEM_ROTATABLE_BOND_COUNT>  (121) 
11

>  <JCHEM_RULE_OF_FIVE>  (121) 
1

>  <JCHEM_TRADITIONAL_IUPAC>  (121) 
(2S)-2-[(2S)-3-phenyl-2-[(2S)-2-sulfanylheptanamido]propanamido]propanoic acid

>  <JCHEM_VEBER_RULE>  (121) 
0

>  <MOLECULAR_WEIGHT>  (121) 
380.502

>  <PRODUCTS>  (121) 
nan

>  <SALTS>  (121) 
nan

>  <SECONDARY_ACCESSION_NUMBERS>  (121) 
EXPT03060

>  <SMILES>  (121) 
[H][C@@](C)(NC(=O)[C@]([H])(CC1=CC=CC=C1)NC(=O)[C@@]([H])(S)CCCCC)C(O)=O

>  <SYNONYMS>  (121) 
nan

>  <ECFP_FP>  (121) 
<rdkit.DataStructs.cDataStructs.ExplicitBitVect object at 0xa2674b5d0>

>  <pki_G>  (121) 
5.715497

>  <pki_D>  (121) 
5.885508

>  <pki_B>  (121) 
5.407992

>  <pki_A>  (121) 
5.925562

>  <SelB>  (121) 
0.307505

>  <SelA>  (121) 
-0.210066

>  <SelD>  (121) 
-0.170012

>  <AvgABSel>  (121) 
0.048719

>  <MACCS_FP>  (121) 
[0. 0. 0. 0. 0. 0. 0. 0. 0. 0. 0. 0. 0. 0. 0. 0. 0. 0. 0. 0. 0. 0. 0. 0.
 0. 0. 0. 0. 0. 0. 0. 0. 0. 0. 0. 0. 0. 0. 0. 0. 0. 0. 0. 0. 0. 0. 0. 0.
 0. 0. 0. 0. 0. 0. 1. 0. 0. 0. 0. 0. 0. 0. 0. 0. 0. 0. 0. 0. 0. 0. 0. 0.
 0. 0. 0. 0. 0. 0. 0. 1. 0. 1. 0. 0. 0. 0. 0. 0. 1. 0. 1. 1. 1. 0. 0. 1.
 0. 0. 0. 0. 0. 0. 0. 0. 1. 0. 0. 0. 1. 0. 1. 1. 0. 0. 1. 1. 1. 1. 1. 0.
 0. 0. 0. 1. 0. 0. 0. 0. 0. 1. 0. 1. 0. 0. 0. 0. 1. 0. 0. 1. 1. 0. 1. 0.
 0. 0. 1. 1. 0. 1. 0. 1. 0. 0. 1. 1. 1. 1. 1. 1. 1. 1. 1. 1. 1. 1. 0.]

>  <MACCS_pki_G>  (121) 
5.841901

>  <MACCS_pki_D>  (121) 
5.889566

>  <MACCS_pki_B>  (121) 
5.596374

>  <MACCS_pki_A>  (121) 
5.31559

>  <MACCS_SelB>  (121) 
0.245527

>  <MACCS_SelA>  (121) 
0.526311

>  <MACCS_SelD>  (121) 
-0.047665

>  <MACCSAvgABSel>  (121) 
0.385919

>  <Pharm2D_FP>  (121) 
[0. 0. 0. ... 0. 0. 0.]

>  <Pharm2D_pki_G>  (121) 
6.042467

>  <Pharm2D_pki_D>  (121) 
5.493616

>  <Pharm2D_pki_B>  (121) 
5.437121

>  <Pharm2D_pki_A>  (121) 
5.259761

>  <Pharm2D_SelB>  (121) 
0.605346

>  <Pharm2D_SelA>  (121) 
0.782706

>  <Pharm2D_SelD>  (121) 
0.548851

>  <Pharm2DAvgABSel>  (121) 
0.694026

>  <QED>  (121) 
0.349505

$$$$
DB12858
     RDKit          2D

 39 43  0  0  1  0  0  0  0  0999 V2000
    4.4029   -4.0132    0.0000 C   0  0  0  0  0  0  0  0  0  0  0  0
    3.7898   -4.5653    0.0000 C   0  0  0  0  0  0  0  0  0  0  0  0
    3.1767   -5.1173    0.0000 C   0  0  0  0  0  0  0  0  0  0  0  0
    4.3418   -5.1784    0.0000 C   0  0  0  0  0  0  0  0  0  0  0  0
    4.0869   -5.9630    0.0000 C   0  0  0  0  0  0  0  0  0  0  0  0
    4.6389   -6.5761    0.0000 C   0  0  0  0  0  0  0  0  0  0  0  0
    4.3839   -7.3607    0.0000 C   0  0  0  0  0  0  0  0  0  0  0  0
    3.5770   -7.5322    0.0000 C   0  0  0  0  0  0  0  0  0  0  0  0
    3.0249   -6.9191    0.0000 C   0  0  0  0  0  0  0  0  0  0  0  0
    3.2799   -6.1345    0.0000 C   0  0  0  0  0  0  0  0  0  0  0  0
    3.3220   -8.3169    0.0000 O   0  0  0  0  0  0  0  0  0  0  0  0
    2.5151   -8.4884    0.0000 C   0  0  0  0  0  0  0  0  0  0  0  0
    2.2601   -9.2730    0.0000 C   0  0  0  0  0  0  0  0  0  0  0  0
    1.4532   -9.4445    0.0000 C   0  0  0  0  0  0  0  0  0  0  0  0
    0.9011   -8.8314    0.0000 C   0  0  0  0  0  0  0  0  0  0  0  0
    1.1561   -8.0468    0.0000 C   0  0  0  0  0  0  0  0  0  0  0  0
    1.9630   -7.8753    0.0000 N   0  0  0  0  0  0  0  0  0  0  0  0
    0.0941   -9.0030    0.0000 C   0  0  0  0  0  0  0  0  0  0  0  0
   -0.4579   -8.3899    0.0000 O   0  0  0  0  0  0  0  0  0  0  0  0
   -0.1608   -9.7876    0.0000 N   0  0  0  0  0  0  0  0  0  0  0  0
    3.2377   -3.9522    0.0000 N   0  0  0  0  0  0  0  0  0  0  0  0
    3.4927   -3.1676    0.0000 C   0  0  0  0  0  0  0  0  0  0  0  0
    2.9406   -2.5545    0.0000 C   0  0  0  0  0  0  0  0  0  0  0  0
    3.1956   -1.7698    0.0000 C   0  0  0  0  0  0  0  0  0  0  0  0
    2.6435   -1.1567    0.0000 O   0  0  0  0  0  0  0  0  0  0  0  0
    2.8985   -0.3721    0.0000 C   0  0  0  0  0  0  0  0  0  0  0  0
    3.7054   -0.2006    0.0000 C   0  0  0  0  0  0  0  0  0  0  0  0
    3.9604    0.5840    0.0000 C   0  0  0  0  0  0  0  0  0  0  0  0
    3.4084    1.1971    0.0000 C   0  0  0  0  0  0  0  0  0  0  0  0
    2.6014    1.0256    0.0000 C   0  0  0  0  0  0  0  0  0  0  0  0
    2.3464    0.2410    0.0000 C   0  0  0  0  0  0  0  0  0  0  0  0
    1.5214    0.2410    0.0000 C   0  0  0  0  0  0  0  0  0  0  0  0
    0.9694   -0.3721    0.0000 C   0  0  0  0  0  0  0  0  0  0  0  0
    0.1624   -0.2006    0.0000 C   0  0  0  0  0  0  0  0  0  0  0  0
   -0.0925    0.5840    0.0000 C   0  0  0  0  0  0  0  0  0  0  0  0
    0.4595    1.1971    0.0000 C   0  0  0  0  0  0  0  0  0  0  0  0
    1.2665    1.0256    0.0000 C   0  0  0  0  0  0  0  0  0  0  0  0
    1.9339    1.5105    0.0000 N   0  0  0  0  0  0  0  0  0  0  0  0
    2.1337   -2.7260    0.0000 O   0  0  0  0  0  0  0  0  0  0  0  0
  1  2  1  0
  2  3  1  0
  2  4  1  0
  4  5  1  0
  5  6  2  0
  6  7  1  0
  7  8  2  0
  8  9  1  0
  9 10  2  0
  5 10  1  0
  8 11  1  0
 11 12  1  0
 12 13  2  0
 13 14  1  0
 14 15  2  0
 15 16  1  0
 16 17  2  0
 12 17  1  0
 15 18  1  0
 18 19  2  0
 18 20  1  0
  2 21  1  0
 21 22  1  0
 22 23  1  0
 23 24  1  0
 24 25  1  0
 25 26  1  0
 26 27  2  0
 27 28  1  0
 28 29  2  0
 29 30  1  0
 30 31  2  0
 26 31  1  0
 31 32  1  0
 32 33  2  0
 33 34  1  0
 34 35  2  0
 35 36  1  0
 36 37  2  0
 32 37  1  0
 37 38  1  0
 30 38  1  0
 23 39  1  6
M  END
>  <ALOGPS_LOGP>  (122) 
4.38

>  <ALOGPS_LOGS>  (122) 
-6.16

>  <ALOGPS_SOLUBILITY>  (122) 
3.66e-04 g/l

>  <DATABASE_NAME>  (122) 
drugbank

>  <DRUGBANK_ID>  (122) 
DB12858

>  <DRUG_GROUPS>  (122) 
investigational

>  <EXACT_MASS>  (122) 
524.242355526

>  <FORMULA>  (122) 
C31H32N4O4

>  <GENERIC_NAME>  (122) 
LY-377604

>  <ID>  (122) 


>  <INCHI_IDENTIFIER>  (122) 
InChI=1S/C31H32N4O4/c1-31(2,16-20-10-13-23(14-11-20)39-28-15-12-21(17-33-28)30(32)37)34-18-22(36)19-38-27-9-5-8-26-29(27)24-6-3-4-7-25(24)35-26/h3-15,17,22,34-36H,16,18-19H2,1-2H3,(H2,32,37)/t22-/m0/s1

>  <INCHI_KEY>  (122) 
RBSGUQYXRDKPAE-QFIPXVFZSA-N

>  <INTERNATIONAL_BRANDS>  (122) 
nan

>  <JCHEM_ACCEPTOR_COUNT>  (122) 
5

>  <JCHEM_ATOM_COUNT>  (122) 
71

>  <JCHEM_AVERAGE_POLARIZABILITY>  (122) 
57.80513947498727

>  <JCHEM_BIOAVAILABILITY>  (122) 
0

>  <JCHEM_DONOR_COUNT>  (122) 
4

>  <JCHEM_FORMAL_CHARGE>  (122) 
0

>  <JCHEM_GHOSE_FILTER>  (122) 
0

>  <JCHEM_IUPAC>  (122) 
6-[4-(2-{[(2S)-3-(9H-carbazol-4-yloxy)-2-hydroxypropyl]amino}-2-methylpropyl)phenoxy]pyridine-3-carboxamide

>  <JCHEM_LOGP>  (122) 
4.376474662333332

>  <JCHEM_MDDR_LIKE_RULE>  (122) 
1

>  <JCHEM_NUMBER_OF_RINGS>  (122) 
5

>  <JCHEM_PHYSIOLOGICAL_CHARGE>  (122) 
1

>  <JCHEM_PKA>  (122) 
14.124377569240082

>  <JCHEM_PKA_STRONGEST_ACIDIC>  (122) 
13.369968362630736

>  <JCHEM_PKA_STRONGEST_BASIC>  (122) 
9.504838237905213

>  <JCHEM_POLAR_SURFACE_AREA>  (122) 
122.49

>  <JCHEM_REFRACTIVITY>  (122) 
150.52269999999996

>  <JCHEM_ROTATABLE_BOND_COUNT>  (122) 
11

>  <JCHEM_RULE_OF_FIVE>  (122) 
0

>  <JCHEM_TRADITIONAL_IUPAC>  (122) 
6-[4-(2-{[(2S)-3-(9H-carbazol-4-yloxy)-2-hydroxypropyl]amino}-2-methylpropyl)phenoxy]pyridine-3-carboxamide

>  <JCHEM_VEBER_RULE>  (122) 
0

>  <MOLECULAR_WEIGHT>  (122) 
524.621

>  <PRODUCTS>  (122) 
nan

>  <SALTS>  (122) 
nan

>  <SECONDARY_ACCESSION_NUMBERS>  (122) 
nan

>  <SMILES>  (122) 
CC(C)(CC1=CC=C(OC2=CC=C(C=N2)C(N)=O)C=C1)NC[C@H](O)COC1=CC=CC2=C1C1=C(N2)C=CC=C1

>  <SYNONYMS>  (122) 
nan

>  <ECFP_FP>  (122) 
<rdkit.DataStructs.cDataStructs.ExplicitBitVect object at 0xa26c62120>

>  <pki_G>  (122) 
5.713967

>  <pki_D>  (122) 
5.733006

>  <pki_B>  (122) 
5.498483

>  <pki_A>  (122) 
5.907102

>  <SelB>  (122) 
0.215484

>  <SelA>  (122) 
-0.193135

>  <SelD>  (122) 
-0.019039

>  <AvgABSel>  (122) 
0.011174

>  <MACCS_FP>  (122) 
[0. 0. 0. 0. 0. 0. 0. 0. 0. 0. 0. 0. 0. 0. 0. 0. 0. 0. 0. 0. 0. 0. 0. 0.
 0. 0. 0. 0. 0. 0. 0. 0. 0. 0. 0. 0. 0. 0. 0. 0. 0. 0. 0. 0. 0. 0. 0. 0.
 0. 0. 0. 0. 0. 0. 1. 0. 0. 0. 0. 0. 0. 0. 0. 0. 0. 1. 1. 0. 0. 0. 0. 0.
 1. 0. 1. 0. 0. 0. 0. 0. 1. 0. 1. 1. 1. 0. 0. 0. 0. 0. 1. 0. 1. 0. 0. 1.
 1. 1. 1. 0. 1. 1. 0. 0. 1. 1. 0. 0. 0. 1. 1. 1. 1. 1. 0. 1. 1. 1. 0. 0.
 1. 1. 0. 0. 0. 1. 1. 1. 0. 1. 0. 1. 1. 0. 0. 0. 0. 1. 1. 1. 1. 0. 1. 1.
 0. 1. 1. 0. 0. 1. 0. 1. 1. 1. 1. 1. 1. 1. 1. 1. 1. 1. 1. 1. 1. 1. 0.]

>  <MACCS_pki_G>  (122) 
5.927781

>  <MACCS_pki_D>  (122) 
6.032127

>  <MACCS_pki_B>  (122) 
5.510893

>  <MACCS_pki_A>  (122) 
6.041834

>  <MACCS_SelB>  (122) 
0.416888

>  <MACCS_SelA>  (122) 
-0.114053

>  <MACCS_SelD>  (122) 
-0.104346

>  <MACCSAvgABSel>  (122) 
0.151418

>  <Pharm2D_FP>  (122) 
[0. 0. 0. ... 0. 0. 0.]

>  <Pharm2D_pki_G>  (122) 
6.196803

>  <Pharm2D_pki_D>  (122) 
5.442228

>  <Pharm2D_pki_B>  (122) 
5.323471

>  <Pharm2D_pki_A>  (122) 
5.23662

>  <Pharm2D_SelB>  (122) 
0.873332

>  <Pharm2D_SelA>  (122) 
0.960183

>  <Pharm2D_SelD>  (122) 
0.754575

>  <Pharm2DAvgABSel>  (122) 
0.916758

>  <QED>  (122) 
0.193777

$$$$
DB15186
     RDKit          2D

 28 32  0  0  0  0  0  0  0  0999 V2000
    4.1080   -0.8093    0.0000 C   0  0  0  0  0  0  0  0  0  0  0  0
    3.4084   -0.3721    0.0000 C   0  0  0  0  0  0  0  0  0  0  0  0
    3.0993   -1.1370    0.0000 C   0  0  0  0  0  0  0  0  0  0  0  0
    3.9604    0.2410    0.0000 O   0  0  0  0  0  0  0  0  0  0  0  0
    3.7054    1.0256    0.0000 C   0  0  0  0  0  0  0  0  0  0  0  0
    2.8985    1.1971    0.0000 C   0  0  0  0  0  0  0  0  0  0  0  0
    2.3464    0.5840    0.0000 N   0  0  0  0  0  0  0  0  0  0  0  0
    2.6014   -0.2006    0.0000 C   0  0  0  0  0  0  0  0  0  0  0  0
    1.9339   -0.6855    0.0000 N   0  0  0  0  0  0  0  0  0  0  0  0
    1.2665   -0.2006    0.0000 C   0  0  0  0  0  0  0  0  0  0  0  0
    0.4595   -0.3721    0.0000 C   0  0  0  0  0  0  0  0  0  0  0  0
   -0.0925    0.2410    0.0000 N   0  0  0  0  0  0  0  0  0  0  0  0
    0.1624    1.0256    0.0000 C   0  0  0  0  0  0  0  0  0  0  0  0
    0.9694    1.1971    0.0000 N   0  0  0  0  0  0  0  0  0  0  0  0
    1.5214    0.5840    0.0000 C   0  0  0  0  0  0  0  0  0  0  0  0
   -0.3896    1.6387    0.0000 C   0  0  0  0  0  0  0  0  0  0  0  0
   -1.1966    1.4672    0.0000 C   0  0  0  0  0  0  0  0  0  0  0  0
   -1.7486    2.0803    0.0000 N   0  0  0  0  0  0  0  0  0  0  0  0
   -1.4937    2.8649    0.0000 C   0  0  0  0  0  0  0  0  0  0  0  0
   -2.0457    3.4780    0.0000 N   0  0  0  0  0  0  0  0  0  0  0  0
   -0.6867    3.0364    0.0000 N   0  0  0  0  0  0  0  0  0  0  0  0
   -0.1347    2.4233    0.0000 C   0  0  0  0  0  0  0  0  0  0  0  0
    0.2046   -1.1567    0.0000 N   0  0  0  0  0  0  0  0  0  0  0  0
    0.7566   -1.7698    0.0000 C   0  0  0  0  0  0  0  0  0  0  0  0
    0.5017   -2.5545    0.0000 C   0  0  0  0  0  0  0  0  0  0  0  0
   -0.3053   -2.7260    0.0000 O   0  0  0  0  0  0  0  0  0  0  0  0
   -0.8573   -2.1129    0.0000 C   0  0  0  0  0  0  0  0  0  0  0  0
   -0.6024   -1.3283    0.0000 C   0  0  0  0  0  0  0  0  0  0  0  0
  1  2  1  0
  2  3  1  0
  2  4  1  0
  4  5  1  0
  5  6  1  0
  6  7  1  0
  7  8  1  0
  2  8  1  0
  8  9  2  0
  9 10  1  0
 10 11  2  0
 11 12  1  0
 12 13  2  0
 13 14  1  0
 14 15  2  0
  7 15  1  0
 10 15  1  0
 13 16  1  0
 16 17  2  0
 17 18  1  0
 18 19  2  0
 19 20  1  0
 19 21  1  0
 21 22  2  0
 16 22  1  0
 11 23  1  0
 23 24  1  0
 24 25  1  0
 25 26  1  0
 26 27  1  0
 27 28  1  0
 23 28  1  0
M  END
>  <ALOGPS_LOGP>  (123) 
1.62

>  <ALOGPS_LOGS>  (123) 
-2.59

>  <ALOGPS_SOLUBILITY>  (123) 
9.93e-01 g/l

>  <DATABASE_NAME>  (123) 
drugbank

>  <DRUGBANK_ID>  (123) 
DB15186

>  <DRUG_GROUPS>  (123) 
investigational

>  <EXACT_MASS>  (123) 
382.18657198

>  <FORMULA>  (123) 
C18H22N8O2

>  <GENERIC_NAME>  (123) 
GDC-0084

>  <ID>  (123) 


>  <INCHI_IDENTIFIER>  (123) 
InChI=1S/C18H22N8O2/c1-18(2)16-22-12-14(25-3-6-27-7-4-25)23-13(11-9-20-17(19)21-10-11)24-15(12)26(16)5-8-28-18/h9-10H,3-8H2,1-2H3,(H2,19,20,21)

>  <INCHI_KEY>  (123) 
LGWACEZVCMBSKW-UHFFFAOYSA-N

>  <INTERNATIONAL_BRANDS>  (123) 
nan

>  <JCHEM_ACCEPTOR_COUNT>  (123) 
9

>  <JCHEM_ATOM_COUNT>  (123) 
50

>  <JCHEM_AVERAGE_POLARIZABILITY>  (123) 
40.85843961913836

>  <JCHEM_BIOAVAILABILITY>  (123) 
1

>  <JCHEM_DONOR_COUNT>  (123) 
1

>  <JCHEM_FORMAL_CHARGE>  (123) 
0

>  <JCHEM_GHOSE_FILTER>  (123) 
1

>  <JCHEM_IUPAC>  (123) 
5-[6,6-dimethyl-4-(morpholin-4-yl)-6H,8H,9H-[1,4]oxazino[3,4-h]purin-2-yl]pyrimidin-2-amine

>  <JCHEM_LOGP>  (123) 
1.321285376666665

>  <JCHEM_MDDR_LIKE_RULE>  (123) 
0

>  <JCHEM_NUMBER_OF_RINGS>  (123) 
5

>  <JCHEM_PHYSIOLOGICAL_CHARGE>  (123) 
0

>  <JCHEM_PKA>  (123) 
nan

>  <JCHEM_PKA_STRONGEST_ACIDIC>  (123) 
15.834804416912823

>  <JCHEM_PKA_STRONGEST_BASIC>  (123) 
3.979547506019327

>  <JCHEM_POLAR_SURFACE_AREA>  (123) 
117.1

>  <JCHEM_REFRACTIVITY>  (123) 
115.15279999999996

>  <JCHEM_ROTATABLE_BOND_COUNT>  (123) 
2

>  <JCHEM_RULE_OF_FIVE>  (123) 
1

>  <JCHEM_TRADITIONAL_IUPAC>  (123) 
(2R)-14-fluoro-2-methyl-6,9,10,19-tetraazapentacyclo[14.2.1.0^{2,6}.0^{8,18}.0^{12,17}]nonadeca-1(18),8,12(17),13,15-pentaen-11-one

>  <JCHEM_VEBER_RULE>  (123) 
0

>  <MOLECULAR_WEIGHT>  (123) 
382.428

>  <PRODUCTS>  (123) 
nan

>  <SALTS>  (123) 
nan

>  <SECONDARY_ACCESSION_NUMBERS>  (123) 
nan

>  <SMILES>  (123) 
CC1(C)OCCN2C1=NC1=C(N=C(N=C21)C1=CN=C(N)N=C1)N1CCOCC1

>  <SYNONYMS>  (123) 
nan

>  <ECFP_FP>  (123) 
<rdkit.DataStructs.cDataStructs.ExplicitBitVect object at 0xa26d54940>

>  <pki_G>  (123) 
5.712507

>  <pki_D>  (123) 
5.83951

>  <pki_B>  (123) 
5.431519

>  <pki_A>  (123) 
4.858345

>  <SelB>  (123) 
0.280989

>  <SelA>  (123) 
0.854162

>  <SelD>  (123) 
-0.127002

>  <AvgABSel>  (123) 
0.567575

>  <MACCS_FP>  (123) 
[0. 0. 0. 0. 0. 0. 0. 0. 0. 0. 0. 0. 0. 0. 0. 0. 0. 0. 0. 0. 0. 0. 0. 0.
 0. 1. 0. 0. 0. 0. 0. 0. 0. 0. 0. 0. 0. 0. 1. 0. 0. 0. 0. 0. 0. 0. 0. 0.
 0. 0. 0. 0. 0. 0. 0. 0. 0. 1. 0. 0. 0. 0. 1. 0. 0. 1. 1. 0. 0. 0. 0. 0.
 0. 0. 1. 1. 0. 1. 0. 1. 1. 0. 0. 1. 1. 1. 1. 0. 0. 0. 0. 0. 0. 0. 0. 1.
 1. 0. 1. 0. 1. 1. 0. 0. 0. 1. 1. 0. 1. 1. 0. 1. 1. 0. 0. 0. 1. 0. 1. 0.
 1. 1. 1. 0. 0. 1. 0. 0. 1. 1. 0. 0. 1. 1. 0. 1. 0. 1. 1. 0. 0. 0. 1. 0.
 1. 1. 0. 1. 1. 1. 0. 1. 1. 1. 0. 0. 1. 1. 1. 1. 1. 1. 1. 1. 1. 1. 0.]

>  <MACCS_pki_G>  (123) 
6.341136

>  <MACCS_pki_D>  (123) 
5.835792

>  <MACCS_pki_B>  (123) 
5.818627

>  <MACCS_pki_A>  (123) 
5.476782

>  <MACCS_SelB>  (123) 
0.522509

>  <MACCS_SelA>  (123) 
0.864354

>  <MACCS_SelD>  (123) 
0.505344

>  <MACCSAvgABSel>  (123) 
0.693432

>  <Pharm2D_FP>  (123) 
[0. 0. 0. ... 0. 0. 0.]

>  <Pharm2D_pki_G>  (123) 
6.116456

>  <Pharm2D_pki_D>  (123) 
6.057075

>  <Pharm2D_pki_B>  (123) 
5.588851

>  <Pharm2D_pki_A>  (123) 
5.895481

>  <Pharm2D_SelB>  (123) 
0.527605

>  <Pharm2D_SelA>  (123) 
0.220975

>  <Pharm2D_SelD>  (123) 
0.059381

>  <Pharm2DAvgABSel>  (123) 
0.37429

>  <QED>  (123) 
0.69144

$$$$
DB14636
     RDKit          2D

 27 30  0  0  0  0  0  0  0  0999 V2000
    0.1138   -0.9052    0.0000 N   0  0  0  0  0  0  0  0  0  0  0  0
    0.1138   -1.7309    0.0000 C   0  0  0  0  0  0  0  0  0  0  0  0
    0.8258   -2.1375    0.0000 N   0  0  0  0  0  0  0  0  0  0  0  0
    1.5345   -1.7309    0.0000 C   0  0  0  0  0  0  0  0  0  0  0  0
    2.2433   -2.1423    0.0000 N   0  0  0  0  0  0  0  0  0  0  0  0
    2.9601   -1.7368    0.0000 N   0  0  0  0  0  0  0  0  0  0  0  0
    2.9636   -0.9112    0.0000 C   0  0  0  0  0  0  0  0  0  0  0  0
    0.8258   -0.4860    0.0000 C   0  0  0  0  0  0  0  0  0  0  0  0
    1.5372   -0.8993    0.0000 C   0  0  0  0  0  0  0  0  0  0  0  0
    2.2479   -0.4933    0.0000 C   0  0  0  0  0  0  0  0  0  0  0  0
    1.8156    0.4042    0.0000 C   0  0  0  0  0  0  0  0  0  0  0  0
    0.9980    0.3179    0.0000 N   0  0  0  0  0  0  0  0  0  0  0  0
    3.6838   -0.4985    0.0000 N   0  0  0  0  0  0  0  0  0  0  0  0
    2.2385   -2.9681    0.0000 C   0  0  0  0  0  0  0  0  0  0  0  0
    0.4429    0.9307    0.0000 C   0  0  0  0  0  0  0  0  0  0  0  0
    0.6153    1.7358    0.0000 C   0  0  0  0  0  0  0  0  0  0  0  0
   -0.0992    2.1470    0.0000 C   0  0  0  0  0  0  0  0  0  0  0  0
   -0.7120    1.5959    0.0000 C   0  0  0  0  0  0  0  0  0  0  0  0
   -0.3787    0.8419    0.0000 O   0  0  0  0  0  0  0  0  0  0  0  0
   -1.5195    1.7686    0.0000 C   0  0  0  0  0  0  0  0  0  0  0  0
   -2.0749    1.1563    0.0000 O   0  0  0  0  0  0  0  0  0  0  0  0
    1.3693    2.0733    0.0000 O   0  0  0  0  0  0  0  0  0  0  0  0
   -0.1856    2.9681    0.0000 O   0  0  0  0  0  0  0  0  0  0  0  0
   -2.8825    1.3249    0.0000 P   0  0  0  0  0  0  0  0  0  0  0  0
   -3.6838    1.5468    0.0000 O   0  0  0  0  0  0  0  0  0  0  0  0
   -3.0752    0.5228    0.0000 O   0  0  0  0  0  0  0  0  0  0  0  0
   -2.6802    2.1256    0.0000 O   0  0  0  0  0  0  0  0  0  0  0  0
  2  3  1  0
  7 13  1  0
  4  5  1  0
  5 14  1  0
  5  6  1  0
 15 12  1  6
 15 16  1  0
  6  7  2  0
  7 10  1  0
  8  9  2  0
  3  4  2  0
 16 17  1  0
 17 18  1  0
 18 19  1  0
 19 15  1  0
  9  4  1  0
 18 20  1  6
  1  2  2  0
 20 21  1  0
 16 22  1  1
  1  8  1  0
 17 23  1  1
  9 10  1  0
 21 24  1  0
 10 11  2  0
 24 25  1  0
 11 12  1  0
 24 26  2  0
 12  8  1  0
 24 27  1  0
M  END
>  <ALOGPS_LOGP>  (124) 
-1.98

>  <ALOGPS_LOGS>  (124) 
-2.11

>  <ALOGPS_SOLUBILITY>  (124) 
3.11e+00 g/l

>  <DATABASE_NAME>  (124) 
drugbank

>  <DRUGBANK_ID>  (124) 
DB14636

>  <DRUG_GROUPS>  (124) 
investigational

>  <EXACT_MASS>  (124) 
400.08963344

>  <FORMULA>  (124) 
C13H17N6O7P

>  <GENERIC_NAME>  (124) 
Triciribine phosphate

>  <ID>  (124) 


>  <INCHI_IDENTIFIER>  (124) 
InChI=1S/C13H17N6O7P/c1-18-11-7-5(10(14)17-18)2-19(12(7)16-4-15-11)13-9(21)8(20)6(26-13)3-25-27(22,23)24/h2,4,6,8-9,13,20-21H,3H2,1H3,(H2,14,17)(H2,22,23,24)/t6-,8-,9-,13-/m1/s1

>  <INCHI_KEY>  (124) 
URLYINUFLXOMHP-HTVVRFAVSA-N

>  <INTERNATIONAL_BRANDS>  (124) 
nan

>  <JCHEM_ACCEPTOR_COUNT>  (124) 
10

>  <JCHEM_ATOM_COUNT>  (124) 
44

>  <JCHEM_AVERAGE_POLARIZABILITY>  (124) 
35.71321149700279

>  <JCHEM_BIOAVAILABILITY>  (124) 
1

>  <JCHEM_DONOR_COUNT>  (124) 
5

>  <JCHEM_FORMAL_CHARGE>  (124) 
0

>  <JCHEM_GHOSE_FILTER>  (124) 
0

>  <JCHEM_IUPAC>  (124) 
{[(2R,3S,4R,5R)-5-{5-amino-7-methyl-2,6,7,9,11-pentaazatricyclo[6.3.1.0^{4,12}]dodeca-1(12),3,5,8,10-pentaen-2-yl}-3,4-dihydroxyoxolan-2-yl]methoxy}phosphonic acid

>  <JCHEM_LOGP>  (124) 
-3.7844289663495196

>  <JCHEM_MDDR_LIKE_RULE>  (124) 
0

>  <JCHEM_NUMBER_OF_RINGS>  (124) 
4

>  <JCHEM_PHYSIOLOGICAL_CHARGE>  (124) 
-1

>  <JCHEM_PKA>  (124) 
6.24691368206684

>  <JCHEM_PKA_STRONGEST_ACIDIC>  (124) 
1.233757555905446

>  <JCHEM_PKA_STRONGEST_BASIC>  (124) 
8.332338060064059

>  <JCHEM_POLAR_SURFACE_AREA>  (124) 
190.99999999999997

>  <JCHEM_REFRACTIVITY>  (124) 
101.42819999999996

>  <JCHEM_ROTATABLE_BOND_COUNT>  (124) 
4

>  <JCHEM_RULE_OF_FIVE>  (124) 
1

>  <JCHEM_TRADITIONAL_IUPAC>  (124) 
[(2R,3S,4R,5R)-5-{5-amino-7-methyl-2,6,7,9,11-pentaazatricyclo[6.3.1.0^{4,12}]dodeca-1(12),3,5,8,10-pentaen-2-yl}-3,4-dihydroxyoxolan-2-yl]methoxyphosphonic acid

>  <JCHEM_VEBER_RULE>  (124) 
0

>  <MOLECULAR_WEIGHT>  (124) 
400.2838

>  <PRODUCTS>  (124) 
nan

>  <SALTS>  (124) 
nan

>  <SECONDARY_ACCESSION_NUMBERS>  (124) 
DBSALT002190

>  <SMILES>  (124) 
CN1N=C(N)C2=CN([C@@H]3O[C@H](COP(O)(O)=O)[C@@H](O)[C@H]3O)C3=C2C1=NC=N3

>  <SYNONYMS>  (124) 
Pentaazaacenaphthylene-5' phosphate ester; TCN-P

>  <ECFP_FP>  (124) 
<rdkit.DataStructs.cDataStructs.ExplicitBitVect object at 0xa26d20990>

>  <pki_G>  (124) 
5.710331

>  <pki_D>  (124) 
5.750058

>  <pki_B>  (124) 
5.373046

>  <pki_A>  (124) 
5.13156

>  <SelB>  (124) 
0.337285

>  <SelA>  (124) 
0.57877

>  <SelD>  (124) 
-0.039727

>  <AvgABSel>  (124) 
0.458027

>  <MACCS_FP>  (124) 
[0. 0. 0. 0. 0. 0. 0. 0. 0. 0. 0. 0. 0. 0. 0. 0. 0. 0. 0. 0. 0. 0. 0. 0.
 0. 0. 0. 0. 0. 1. 0. 0. 0. 0. 0. 0. 0. 0. 1. 0. 0. 0. 0. 1. 0. 0. 0. 0.
 1. 0. 0. 0. 1. 0. 1. 0. 0. 1. 0. 0. 0. 0. 1. 0. 0. 1. 0. 0. 0. 1. 0. 0.
 1. 0. 0. 1. 0. 1. 0. 1. 1. 0. 0. 1. 1. 1. 0. 0. 0. 1. 1. 1. 1. 1. 1. 1.
 1. 1. 1. 0. 0. 1. 1. 0. 0. 1. 1. 0. 0. 1. 1. 0. 1. 0. 0. 0. 0. 1. 0. 0.
 1. 1. 1. 0. 1. 1. 1. 1. 0. 0. 1. 1. 1. 1. 0. 1. 0. 1. 0. 1. 1. 0. 1. 1.
 0. 1. 1. 0. 1. 0. 1. 1. 1. 1. 0. 1. 1. 1. 1. 1. 1. 1. 1. 1. 1. 1. 0.]

>  <MACCS_pki_G>  (124) 
6.347475

>  <MACCS_pki_D>  (124) 
5.828494

>  <MACCS_pki_B>  (124) 
5.74978

>  <MACCS_pki_A>  (124) 
5.732571

>  <MACCS_SelB>  (124) 
0.597695

>  <MACCS_SelA>  (124) 
0.614904

>  <MACCS_SelD>  (124) 
0.518981

>  <MACCSAvgABSel>  (124) 
0.6063

>  <Pharm2D_FP>  (124) 
[0. 0. 0. ... 0. 0. 0.]

>  <Pharm2D_pki_G>  (124) 
6.210751

>  <Pharm2D_pki_D>  (124) 
6.07658

>  <Pharm2D_pki_B>  (124) 
5.693338

>  <Pharm2D_pki_A>  (124) 
5.67683

>  <Pharm2D_SelB>  (124) 
0.517412

>  <Pharm2D_SelA>  (124) 
0.53392

>  <Pharm2D_SelD>  (124) 
0.13417

>  <Pharm2DAvgABSel>  (124) 
0.525666

>  <QED>  (124) 
0.324573

$$$$
DB04176
     RDKit          2D

 24 26  0  0  1  0  0  0  0  0999 V2000
    4.7079   -1.2375    0.0000 C   0  0  0  0  0  0  0  0  0  0  0  0
    3.9934    0.8250    0.0000 C   0  0  0  0  0  0  0  0  0  0  0  0
    3.2789    1.2375    0.0000 C   0  0  0  0  0  0  0  0  0  0  0  0
    3.2789   -0.4125    0.0000 C   0  0  0  0  0  0  0  0  0  0  0  0
    1.7798    3.9841    0.0000 C   0  0  0  0  0  0  0  0  0  0  0  0
    1.2949    0.4125    0.0000 C   0  0  0  0  0  0  0  0  0  0  0  0
    3.9934    0.0000    0.0000 C   0  0  0  0  0  0  0  0  0  0  0  0
    2.5645    0.0000    0.0000 C   0  0  0  0  0  0  0  0  0  0  0  0
    2.5645    0.8250    0.0000 C   0  0  0  0  0  0  0  0  0  0  0  0
    1.5249    3.1994    0.0000 C   0  0  0  0  0  0  0  0  0  0  0  0
    0.7403    2.9445    0.0000 C   0  0  0  0  0  0  0  0  0  0  0  0
    0.7403    2.1195    0.0000 C   0  0  0  0  0  0  0  0  0  0  0  0
    1.5249    1.8646    0.0000 C   0  0  0  0  0  0  0  0  0  0  0  0
    1.7798   -0.2549    0.0000 N   0  0  0  0  0  0  0  0  0  0  0  0
    1.7798    1.0799    0.0000 N   0  0  0  0  0  0  0  0  0  0  0  0
    0.0728    3.4294    0.0000 O   0  0  0  0  0  0  0  0  0  0  0  0
    0.0728    1.6346    0.0000 O   0  0  0  0  0  0  0  0  0  0  0  0
    3.0967    5.7248    0.0000 O   0  0  0  0  0  0  0  0  0  0  0  0
    3.6264    4.6853    0.0000 O   0  0  0  0  0  0  0  0  0  0  0  0
    2.0571    5.1951    0.0000 O   0  0  0  0  0  0  0  0  0  0  0  0
    4.7079   -0.4125    0.0000 O   0  0  0  0  0  0  0  0  0  0  0  0
    2.5868    4.1556    0.0000 O   0  0  0  0  0  0  0  0  0  0  0  0
    2.0098    2.5320    0.0000 O   0  0  0  0  0  0  0  0  0  0  0  0
    2.8417    4.9402    0.0000 P   0  0  0  0  0  0  0  0  0  0  0  0
  3  2  2  0
  7  2  1  0
  7  4  2  0
  8  4  1  0
  9  3  1  0
  9  8  2  0
 10  5  1  1
 11 10  1  0
 12 11  1  0
 13 12  1  0
 14  6  2  0
 14  8  1  0
 15  6  1  0
 15  9  1  0
 13 15  1  6
 11 16  1  6
 12 17  1  6
 21  1  1  0
 21  7  1  0
 22  5  1  0
 23 10  1  0
 23 13  1  0
 24 18  1  0
 24 19  1  0
 24 20  2  0
 24 22  1  0
M  END
>  <ALOGPS_LOGP>  (125) 
-0.69

>  <ALOGPS_LOGS>  (125) 
-2.28

>  <ALOGPS_SOLUBILITY>  (125) 
1.90e+00 g/l

>  <DATABASE_NAME>  (125) 
drugbank

>  <DRUGBANK_ID>  (125) 
DB04176

>  <DRUG_GROUPS>  (125) 
experimental

>  <EXACT_MASS>  (125) 
360.072252042

>  <FORMULA>  (125) 
C13H17N2O8P

>  <GENERIC_NAME>  (125) 
Phosporic Acid Mono-[3,4-Dihydroxy-5-(5-Methoxy-Benzoimidazol-1-Yl)-Tetrahydro-Furan-2-Ylmethyl] Ester

>  <ID>  (125) 


>  <INCHI_IDENTIFIER>  (125) 
InChI=1S/C13H17N2O8P/c1-21-7-2-3-9-8(4-7)14-6-15(9)13-12(17)11(16)10(23-13)5-22-24(18,19)20/h2-4,6,10-13,16-17H,5H2,1H3,(H2,18,19,20)/t10-,11-,12-,13+/m1/s1

>  <INCHI_KEY>  (125) 
VYUPJUKSTVHSQI-LPWJVIDDSA-N

>  <INTERNATIONAL_BRANDS>  (125) 
nan

>  <JCHEM_ACCEPTOR_COUNT>  (125) 
8

>  <JCHEM_ATOM_COUNT>  (125) 
nan

>  <JCHEM_AVERAGE_POLARIZABILITY>  (125) 
32.73161565447603

>  <JCHEM_BIOAVAILABILITY>  (125) 
1

>  <JCHEM_DONOR_COUNT>  (125) 
4

>  <JCHEM_FORMAL_CHARGE>  (125) 
0

>  <JCHEM_GHOSE_FILTER>  (125) 
0

>  <JCHEM_IUPAC>  (125) 
{[(2R,3S,4R,5S)-3,4-dihydroxy-5-(5-methoxy-1H-1,3-benzodiazol-1-yl)oxolan-2-yl]methoxy}phosphonic acid

>  <JCHEM_LOGP>  (125) 
-2.613911792949158

>  <JCHEM_MDDR_LIKE_RULE>  (125) 
0

>  <JCHEM_NUMBER_OF_RINGS>  (125) 
3

>  <JCHEM_PHYSIOLOGICAL_CHARGE>  (125) 
-2

>  <JCHEM_PKA>  (125) 
6.387340735953589

>  <JCHEM_PKA_STRONGEST_ACIDIC>  (125) 
1.2246939715516056

>  <JCHEM_PKA_STRONGEST_BASIC>  (125) 
5.682273639939406

>  <JCHEM_POLAR_SURFACE_AREA>  (125) 
143.5

>  <JCHEM_REFRACTIVITY>  (125) 
78.90089999999998

>  <JCHEM_ROTATABLE_BOND_COUNT>  (125) 
5

>  <JCHEM_RULE_OF_FIVE>  (125) 
1

>  <JCHEM_TRADITIONAL_IUPAC>  (125) 
[(2R,3S,4R,5S)-3,4-dihydroxy-5-(5-methoxy-1,3-benzodiazol-1-yl)oxolan-2-yl]methoxyphosphonic acid

>  <JCHEM_VEBER_RULE>  (125) 
0

>  <MOLECULAR_WEIGHT>  (125) 
360.2564

>  <PRODUCTS>  (125) 
nan

>  <SALTS>  (125) 
nan

>  <SECONDARY_ACCESSION_NUMBERS>  (125) 
EXPT02620

>  <SMILES>  (125) 
[H][C@]1(COP(O)(O)=O)O[C@]([H])(N2C=NC3=C2C=CC(OC)=C3)[C@]([H])(O)[C@]1([H])O

>  <SYNONYMS>  (125) 
nan

>  <ECFP_FP>  (125) 
<rdkit.DataStructs.cDataStructs.ExplicitBitVect object at 0xa2694cf80>

>  <pki_G>  (125) 
5.7087

>  <pki_D>  (125) 
5.687501

>  <pki_B>  (125) 
5.392201

>  <pki_A>  (125) 
5.201873

>  <SelB>  (125) 
0.316498

>  <SelA>  (125) 
0.506827

>  <SelD>  (125) 
0.021198

>  <AvgABSel>  (125) 
0.411663

>  <MACCS_FP>  (125) 
[0. 0. 0. 0. 0. 0. 0. 0. 0. 0. 0. 0. 0. 0. 0. 0. 0. 0. 0. 0. 0. 0. 0. 0.
 0. 0. 0. 0. 0. 1. 0. 0. 0. 0. 0. 0. 0. 0. 0. 0. 0. 0. 0. 1. 0. 0. 0. 0.
 1. 0. 0. 0. 0. 0. 1. 0. 0. 1. 0. 0. 0. 0. 1. 0. 0. 1. 0. 0. 0. 1. 0. 0.
 1. 0. 0. 1. 0. 1. 0. 1. 0. 0. 0. 1. 0. 1. 0. 0. 0. 1. 1. 1. 1. 1. 0. 1.
 1. 1. 0. 0. 0. 1. 1. 0. 0. 1. 1. 0. 0. 1. 1. 0. 1. 1. 0. 0. 0. 1. 0. 0.
 1. 1. 1. 0. 1. 1. 1. 1. 0. 0. 1. 1. 1. 1. 0. 0. 0. 1. 0. 1. 1. 0. 1. 1.
 0. 0. 1. 0. 1. 0. 1. 0. 1. 1. 0. 1. 1. 1. 1. 1. 1. 1. 1. 1. 1. 1. 0.]

>  <MACCS_pki_G>  (125) 
6.396071

>  <MACCS_pki_D>  (125) 
5.719321

>  <MACCS_pki_B>  (125) 
5.712699

>  <MACCS_pki_A>  (125) 
5.523333

>  <MACCS_SelB>  (125) 
0.683371

>  <MACCS_SelA>  (125) 
0.872738

>  <MACCS_SelD>  (125) 
0.67675

>  <MACCSAvgABSel>  (125) 
0.778055

>  <Pharm2D_FP>  (125) 
[0. 0. 0. ... 0. 0. 0.]

>  <Pharm2D_pki_G>  (125) 
5.772548

>  <Pharm2D_pki_D>  (125) 
5.808617

>  <Pharm2D_pki_B>  (125) 
5.517958

>  <Pharm2D_pki_A>  (125) 
5.599997

>  <Pharm2D_SelB>  (125) 
0.25459

>  <Pharm2D_SelA>  (125) 
0.172551

>  <Pharm2D_SelD>  (125) 
-0.036069

>  <Pharm2DAvgABSel>  (125) 
0.213571

>  <QED>  (125) 
0.531684

$$$$
DB01792
     RDKit          2D

 43 47  0  0  1  0  0  0  0  0999 V2000
   -0.3104   -8.0179    0.0000 C   0  0  0  0  0  0  0  0  0  0  0  0
   -0.2242   -7.1974    0.0000 C   0  0  0  0  0  0  0  0  0  0  0  0
   -0.5683   -1.4940    0.0000 C   0  0  0  0  0  0  0  0  0  0  0  0
    0.2896   -4.0594    0.0000 C   0  0  0  0  0  0  0  0  0  0  0  0
    3.3523    1.1104    0.0000 C   0  0  0  0  0  0  0  0  0  0  0  0
    0.6538    1.5229    0.0000 C   0  0  0  0  0  0  0  0  0  0  0  0
    0.0992   -1.0091    0.0000 C   0  0  0  0  0  0  0  0  0  0  0  0
   -0.2624   -4.6725    0.0000 C   0  0  0  0  0  0  0  0  0  0  0  0
   -1.0641   -8.3534    0.0000 C   0  0  0  0  0  0  0  0  0  0  0  0
    1.9233    1.9354    0.0000 C   0  0  0  0  0  0  0  0  0  0  0  0
    1.3687   -0.5966    0.0000 C   0  0  0  0  0  0  0  0  0  0  0  0
   -1.4185   -5.3400    0.0000 C   0  0  0  0  0  0  0  0  0  0  0  0
    0.8838   -1.2640    0.0000 C   0  0  0  0  0  0  0  0  0  0  0  0
   -1.0829   -4.5863    0.0000 C   0  0  0  0  0  0  0  0  0  0  0  0
    2.6378    2.3479    0.0000 C   0  0  0  0  0  0  0  0  0  0  0  0
    1.9233    1.1104    0.0000 C   0  0  0  0  0  0  0  0  0  0  0  0
   -0.8054   -5.8920    0.0000 C   0  0  0  0  0  0  0  0  0  0  0  0
    0.8838    0.0709    0.0000 C   0  0  0  0  0  0  0  0  0  0  0  0
   -1.6453   -7.0480    0.0000 C   0  0  0  0  0  0  0  0  0  0  0  0
    2.6378    3.1729    0.0000 N   0  0  0  0  0  0  0  0  0  0  0  0
    3.3523    1.9354    0.0000 N   0  0  0  0  0  0  0  0  0  0  0  0
    2.6378    0.6979    0.0000 N   0  0  0  0  0  0  0  0  0  0  0  0
    1.1387    2.1904    0.0000 N   0  0  0  0  0  0  0  0  0  0  0  0
   -1.7315   -7.8685    0.0000 N   0  0  0  0  0  0  0  0  0  0  0  0
   -0.8916   -6.7125    0.0000 N   0  0  0  0  0  0  0  0  0  0  0  0
    1.1387    0.8555    0.0000 N   0  0  0  0  0  0  0  0  0  0  0  0
   -1.3220   -1.1584    0.0000 O   0  0  0  0  0  0  0  0  0  0  0  0
   -1.1503   -9.1739    0.0000 O   0  0  0  0  0  0  0  0  0  0  0  0
    2.1937   -0.5966    0.0000 O   0  0  0  0  0  0  0  0  0  0  0  0
   -2.2254   -5.5115    0.0000 O   0  0  0  0  0  0  0  0  0  0  0  0
   -2.3127   -6.5631    0.0000 O   0  0  0  0  0  0  0  0  0  0  0  0
   -0.3684   -3.5698    0.0000 O   0  0  0  0  0  0  0  0  0  0  0  0
   -1.7974   -2.7448    0.0000 O   0  0  0  0  0  0  0  0  0  0  0  0
   -0.6704   -2.4429    0.0000 O   0  0  0  0  0  0  0  0  0  0  0  0
   -0.0264   -2.1097    0.0000 O   0  0  0  0  0  0  0  0  0  0  0  0
    1.1998   -3.2137    0.0000 O   0  0  0  0  0  0  0  0  0  0  0  0
    0.0347   -3.2748    0.0000 O   0  0  0  0  0  0  0  0  0  0  0  0
    0.0992   -0.1841    0.0000 O   0  0  0  0  0  0  0  0  0  0  0  0
   -0.0909   -5.4795    0.0000 O   0  0  0  0  0  0  0  0  0  0  0  0
   -1.4954   -3.8718    0.0000 O   0  0  0  0  0  0  0  0  0  0  0  0
    1.1387   -2.0486    0.0000 O   0  0  0  0  0  0  0  0  0  0  0  0
   -1.0829   -3.1573    0.0000 P   0  0  0  0  0  0  0  0  0  0  0  0
    0.5867   -2.6617    0.0000 P   0  0  0  0  0  0  0  0  0  0  0  0
  2  1  2  0
  7  3  1  1
  8  4  1  1
  9  1  1  0
 13  7  1  0
 13 11  1  0
 14  8  1  0
 14 12  1  0
 15 10  2  0
 16 10  1  0
 17 12  1  0
 18 11  1  0
 20 15  1  0
 21  5  2  0
 21 15  1  0
 22  5  1  0
 22 16  2  0
 23  6  2  0
 23 10  1  0
 24  9  2  0
 24 19  1  0
 25  2  1  0
 17 25  1  1
 25 19  1  0
 26  6  1  0
 26 16  1  0
 18 26  1  1
 27  3  1  0
 28  9  1  0
 11 29  1  6
 12 30  1  6
 31 19  2  0
 37  4  1  0
 38  7  1  0
 38 18  1  0
 39  8  1  0
 39 17  1  0
 14 40  1  6
 13 41  1  6
 42 32  1  0
 42 33  1  0
 42 34  2  0
 42 40  1  0
 43 35  1  0
 43 36  2  0
 43 37  1  0
 43 41  1  0
M  END
>  <ALOGPS_LOGP>  (126) 
-1.82

>  <ALOGPS_LOGS>  (126) 
-2.07

>  <ALOGPS_SOLUBILITY>  (126) 
5.50e+00 g/l

>  <DATABASE_NAME>  (126) 
drugbank

>  <DRUGBANK_ID>  (126) 
DB01792

>  <DRUG_GROUPS>  (126) 
experimental

>  <EXACT_MASS>  (126) 
653.088386189

>  <FORMULA>  (126) 
C19H25N7O15P2

>  <GENERIC_NAME>  (126) 
Adenylyl-3'-5'-Phospho-Uridine-3'-Monophosphate

>  <ID>  (126) 


>  <INCHI_IDENTIFIER>  (126) 
InChI=1S/C19H25N7O15P2/c20-15-10-16(22-5-21-15)26(6-23-10)18-11(29)13(7(3-27)38-18)41-43(35,36)37-4-8-14(40-42(32,33)34)12(30)17(39-8)25-2-1-9(28)24-19(25)31/h1-2,5-8,11-14,17-18,27,29-30H,3-4H2,(H,35,36)(H2,20,21,22)(H,24,28,31)(H2,32,33,34)/t7-,8-,11-,12-,13-,14-,17-,18-/m1/s1

>  <INCHI_KEY>  (126) 
FZCSEXOMUJFOHQ-KPKSGTNCSA-N

>  <INTERNATIONAL_BRANDS>  (126) 
nan

>  <JCHEM_ACCEPTOR_COUNT>  (126) 
17

>  <JCHEM_ATOM_COUNT>  (126) 
nan

>  <JCHEM_AVERAGE_POLARIZABILITY>  (126) 
55.405292687443236

>  <JCHEM_BIOAVAILABILITY>  (126) 
0

>  <JCHEM_DONOR_COUNT>  (126) 
8

>  <JCHEM_FORMAL_CHARGE>  (126) 
0

>  <JCHEM_GHOSE_FILTER>  (126) 
0

>  <JCHEM_IUPAC>  (126) 
{[(2R,3S,4R,5R)-2-{[({[(2R,3S,4R,5R)-5-(6-amino-9H-purin-9-yl)-4-hydroxy-2-(hydroxymethyl)oxolan-3-yl]oxy}(hydroxy)phosphoryl)oxy]methyl}-4-hydroxy-5-(4-hydroxy-2-oxo-1,2-dihydropyrimidin-1-yl)oxolan-3-yl]oxy}phosphonic acid

>  <JCHEM_LOGP>  (126) 
-5.856777514174233

>  <JCHEM_MDDR_LIKE_RULE>  (126) 
1

>  <JCHEM_NUMBER_OF_RINGS>  (126) 
5

>  <JCHEM_PHYSIOLOGICAL_CHARGE>  (126) 
-3

>  <JCHEM_PKA>  (126) 
1.8774217747697644

>  <JCHEM_PKA_STRONGEST_ACIDIC>  (126) 
0.8262231461664955

>  <JCHEM_PKA_STRONGEST_BASIC>  (126) 
4.938146324323877

>  <JCHEM_POLAR_SURFACE_AREA>  (126) 
324.19000000000005

>  <JCHEM_REFRACTIVITY>  (126) 
134.04969999999997

>  <JCHEM_ROTATABLE_BOND_COUNT>  (126) 
10

>  <JCHEM_RULE_OF_FIVE>  (126) 
0

>  <JCHEM_TRADITIONAL_IUPAC>  (126) 
[(2R,3S,4R,5R)-2-[({[(2R,3S,4R,5R)-5-(6-aminopurin-9-yl)-4-hydroxy-2-(hydroxymethyl)oxolan-3-yl]oxy(hydroxy)phosphoryl}oxy)methyl]-4-hydroxy-5-(4-hydroxy-2-oxopyrimidin-1-yl)oxolan-3-yl]oxyphosphonic acid

>  <JCHEM_VEBER_RULE>  (126) 
0

>  <MOLECULAR_WEIGHT>  (126) 
653.3872

>  <PRODUCTS>  (126) 
nan

>  <SALTS>  (126) 
nan

>  <SECONDARY_ACCESSION_NUMBERS>  (126) 
EXPT00547

>  <SMILES>  (126) 
[H][C@]1(CO)O[C@@]([H])(N2C=NC3=C(N)N=CN=C23)[C@]([H])(O)[C@]1([H])OP(O)(=O)OC[C@@]1([H])O[C@@]([H])(N2C=CC(O)=NC2=O)[C@]([H])(O)[C@]1([H])OP(O)(O)=O

>  <SYNONYMS>  (126) 
nan

>  <ECFP_FP>  (126) 
<rdkit.DataStructs.cDataStructs.ExplicitBitVect object at 0xa266cb0d0>

>  <pki_G>  (126) 
5.708289

>  <pki_D>  (126) 
5.747108

>  <pki_B>  (126) 
5.2979

>  <pki_A>  (126) 
5.20359

>  <SelB>  (126) 
0.41039

>  <SelA>  (126) 
0.5047

>  <SelD>  (126) 
-0.038819

>  <AvgABSel>  (126) 
0.457545

>  <MACCS_FP>  (126) 
[0. 0. 0. 0. 0. 0. 0. 0. 0. 0. 0. 0. 0. 0. 0. 0. 0. 0. 0. 0. 0. 0. 0. 0.
 0. 0. 0. 0. 0. 1. 0. 0. 0. 0. 0. 0. 0. 1. 1. 0. 0. 0. 0. 1. 0. 0. 0. 0.
 1. 0. 0. 0. 0. 0. 0. 0. 0. 1. 0. 0. 0. 0. 1. 0. 0. 1. 0. 0. 0. 1. 0. 0.
 1. 0. 0. 1. 0. 1. 0. 1. 1. 0. 1. 1. 1. 1. 0. 0. 0. 1. 1. 1. 1. 0. 0. 1.
 1. 1. 1. 0. 0. 1. 1. 0. 0. 1. 1. 0. 0. 1. 1. 0. 1. 1. 0. 0. 0. 1. 0. 0.
 1. 1. 1. 0. 1. 1. 1. 1. 0. 0. 1. 1. 1. 1. 0. 1. 1. 1. 1. 1. 1. 0. 1. 1.
 1. 1. 1. 0. 1. 0. 1. 1. 1. 1. 1. 1. 1. 1. 1. 1. 0. 1. 1. 1. 1. 1. 0.]

>  <MACCS_pki_G>  (126) 
5.780407

>  <MACCS_pki_D>  (126) 
5.829371

>  <MACCS_pki_B>  (126) 
5.310246

>  <MACCS_pki_A>  (126) 
5.809905

>  <MACCS_SelB>  (126) 
0.47016

>  <MACCS_SelA>  (126) 
-0.029498

>  <MACCS_SelD>  (126) 
-0.048965

>  <MACCSAvgABSel>  (126) 
0.220331

>  <Pharm2D_FP>  (126) 
[0. 0. 0. ... 0. 0. 0.]

>  <Pharm2D_pki_G>  (126) 
6.709936

>  <Pharm2D_pki_D>  (126) 
6.092531

>  <Pharm2D_pki_B>  (126) 
5.695536

>  <Pharm2D_pki_A>  (126) 
5.668917

>  <Pharm2D_SelB>  (126) 
1.0144

>  <Pharm2D_SelA>  (126) 
1.041019

>  <Pharm2D_SelD>  (126) 
0.617405

>  <Pharm2DAvgABSel>  (126) 
1.027709

>  <QED>  (126) 
0.100181

$$$$
DB06957
     RDKit          2D

 31 34  0  0  0  0  0  0  0  0999 V2000
   -3.2917    3.4560    0.0000 C   0  0  0  0  0  0  0  0  0  0  0  0
   -2.5772    3.0435    0.0000 S   0  0  0  0  0  0  0  0  0  0  0  0
   -2.9897    2.3290    0.0000 O   0  0  0  0  0  0  0  0  0  0  0  0
   -2.1647    3.7580    0.0000 O   0  0  0  0  0  0  0  0  0  0  0  0
   -1.8627    2.6310    0.0000 C   0  0  0  0  0  0  0  0  0  0  0  0
   -1.1483    3.0435    0.0000 C   0  0  0  0  0  0  0  0  0  0  0  0
   -0.4338    2.6310    0.0000 C   0  0  0  0  0  0  0  0  0  0  0  0
   -1.8627    1.8060    0.0000 C   0  0  0  0  0  0  0  0  0  0  0  0
   -1.1483    1.3935    0.0000 C   0  0  0  0  0  0  0  0  0  0  0  0
   -0.4338    1.8060    0.0000 C   0  0  0  0  0  0  0  0  0  0  0  0
    0.2807    1.3935    0.0000 C   0  0  0  0  0  0  0  0  0  0  0  0
    0.2807    0.5685    0.0000 N   0  0  0  0  0  0  0  0  0  0  0  0
    0.9952    0.1560    0.0000 C   0  0  0  0  0  0  0  0  0  0  0  0
    0.9952   -0.6690    0.0000 C   0  0  0  0  0  0  0  0  0  0  0  0
   -0.4338    0.1560    0.0000 C   0  0  0  0  0  0  0  0  0  0  0  0
   -0.4338   -0.6690    0.0000 C   0  0  0  0  0  0  0  0  0  0  0  0
    0.2807   -1.0815    0.0000 N   0  0  0  0  0  0  0  0  0  0  0  0
    0.2807   -1.9065    0.0000 C   0  0  0  0  0  0  0  0  0  0  0  0
   -0.3868   -2.3914    0.0000 C   0  0  0  0  0  0  0  0  0  0  0  0
   -0.1318   -3.1760    0.0000 N   0  0  0  0  0  0  0  0  0  0  0  0
    0.6932   -3.1760    0.0000 N   0  0  0  0  0  0  0  0  0  0  0  0
    0.9481   -2.3914    0.0000 C   0  0  0  0  0  0  0  0  0  0  0  0
    1.7327   -2.1365    0.0000 C   0  0  0  0  0  0  0  0  0  0  0  0
    1.9043   -1.3295    0.0000 C   0  0  0  0  0  0  0  0  0  0  0  0
    2.6889   -1.0746    0.0000 C   0  0  0  0  0  0  0  0  0  0  0  0
    2.8604   -0.2676    0.0000 Cl  0  0  0  0  0  0  0  0  0  0  0  0
    3.3020   -1.6266    0.0000 C   0  0  0  0  0  0  0  0  0  0  0  0
    4.0866   -1.3717    0.0000 O   0  0  0  0  0  0  0  0  0  0  0  0
    3.1305   -2.4336    0.0000 C   0  0  0  0  0  0  0  0  0  0  0  0
    2.3458   -2.6885    0.0000 C   0  0  0  0  0  0  0  0  0  0  0  0
    2.1743   -3.4955    0.0000 O   0  0  0  0  0  0  0  0  0  0  0  0
  1  2  1  0
  2  3  2  0
  2  4  2  0
  2  5  1  0
  5  6  2  0
  5  8  1  0
  6  7  1  0
  7 10  2  0
  8  9  2  0
  9 10  1  0
 10 11  1  0
 11 12  1  0
 12 13  1  0
 12 15  1  0
 13 14  1  0
 14 17  1  0
 15 16  1  0
 16 17  1  0
 17 18  1  0
 18 19  1  0
 18 22  2  0
 19 20  2  0
 20 21  1  0
 21 22  1  0
 22 23  1  0
 23 24  2  0
 23 30  1  0
 24 25  1  0
 25 26  1  0
 25 27  2  0
 27 28  1  0
 27 29  1  0
 29 30  2  0
 30 31  1  0
M  END
>  <ALOGPS_LOGP>  (127) 
2.49

>  <ALOGPS_LOGS>  (127) 
-3.42

>  <ALOGPS_SOLUBILITY>  (127) 
1.78e-01 g/l

>  <DATABASE_NAME>  (127) 
drugbank

>  <DRUGBANK_ID>  (127) 
DB06957

>  <DRUG_GROUPS>  (127) 
experimental

>  <EXACT_MASS>  (127) 
462.112853641

>  <FORMULA>  (127) 
C21H23ClN4O4S

>  <GENERIC_NAME>  (127) 
4-CHLORO-6-(4-{4-[4-(METHYLSULFONYL)BENZYL]PIPERAZIN-1-YL}-1H-PYRAZOL-5-YL)BENZENE-1,3-DIOL

>  <ID>  (127) 
2D9

>  <INCHI_IDENTIFIER>  (127) 
InChI=1S/C21H23ClN4O4S/c1-31(29,30)15-4-2-14(3-5-15)13-25-6-8-26(9-7-25)18-12-23-24-21(18)16-10-17(22)20(28)11-19(16)27/h2-5,10-12,27-28H,6-9,13H2,1H3,(H,23,24)

>  <INCHI_KEY>  (127) 
BDFJIEMVNDLSTB-UHFFFAOYSA-N

>  <INTERNATIONAL_BRANDS>  (127) 
nan

>  <JCHEM_ACCEPTOR_COUNT>  (127) 
7

>  <JCHEM_ATOM_COUNT>  (127) 
nan

>  <JCHEM_AVERAGE_POLARIZABILITY>  (127) 
46.819356270989864

>  <JCHEM_BIOAVAILABILITY>  (127) 
1

>  <JCHEM_DONOR_COUNT>  (127) 
3

>  <JCHEM_FORMAL_CHARGE>  (127) 
0

>  <JCHEM_GHOSE_FILTER>  (127) 
1

>  <JCHEM_IUPAC>  (127) 
4-chloro-6-(4-{4-[(4-methanesulfonylphenyl)methyl]piperazin-1-yl}-1H-pyrazol-5-yl)benzene-1,3-diol

>  <JCHEM_LOGP>  (127) 
2.361515424

>  <JCHEM_MDDR_LIKE_RULE>  (127) 
0

>  <JCHEM_NUMBER_OF_RINGS>  (127) 
4

>  <JCHEM_PHYSIOLOGICAL_CHARGE>  (127) 
0

>  <JCHEM_PKA>  (127) 
9.415641837980811

>  <JCHEM_PKA_STRONGEST_ACIDIC>  (127) 
8.006898116320707

>  <JCHEM_PKA_STRONGEST_BASIC>  (127) 
5.385375741817118

>  <JCHEM_POLAR_SURFACE_AREA>  (127) 
109.76000000000002

>  <JCHEM_REFRACTIVITY>  (127) 
122.62059999999998

>  <JCHEM_ROTATABLE_BOND_COUNT>  (127) 
5

>  <JCHEM_RULE_OF_FIVE>  (127) 
1

>  <JCHEM_TRADITIONAL_IUPAC>  (127) 
4-chloro-6-(4-{4-[(4-methanesulfonylphenyl)methyl]piperazin-1-yl}-2H-pyrazol-3-yl)benzene-1,3-diol

>  <JCHEM_VEBER_RULE>  (127) 
0

>  <MOLECULAR_WEIGHT>  (127) 
462.95

>  <PRODUCTS>  (127) 
nan

>  <SALTS>  (127) 
nan

>  <SECONDARY_ACCESSION_NUMBERS>  (127) 
nan

>  <SMILES>  (127) 
CS(=O)(=O)C1=CC=C(CN2CCN(CC2)C2=C(NN=C2)C2=CC(Cl)=C(O)C=C2O)C=C1

>  <SYNONYMS>  (127) 
nan

>  <ECFP_FP>  (127) 
<rdkit.DataStructs.cDataStructs.ExplicitBitVect object at 0xa26a3ab20>

>  <pki_G>  (127) 
5.704225

>  <pki_D>  (127) 
5.603646

>  <pki_B>  (127) 
5.451058

>  <pki_A>  (127) 
5.326089

>  <SelB>  (127) 
0.253167

>  <SelA>  (127) 
0.378136

>  <SelD>  (127) 
0.10058

>  <AvgABSel>  (127) 
0.315651

>  <MACCS_FP>  (127) 
[0. 0. 0. 0. 0. 0. 0. 0. 0. 0. 0. 0. 0. 0. 0. 0. 0. 0. 0. 0. 0. 0. 0. 0.
 0. 0. 0. 0. 0. 0. 0. 0. 0. 0. 0. 0. 0. 0. 0. 0. 0. 0. 0. 0. 0. 0. 0. 0.
 0. 0. 0. 1. 1. 1. 0. 1. 0. 0. 1. 1. 1. 1. 1. 0. 1. 1. 0. 1. 0. 1. 0. 0.
 0. 1. 0. 1. 0. 0. 0. 1. 1. 1. 0. 1. 0. 1. 1. 1. 1. 1. 0. 1. 0. 1. 1. 0.
 1. 1. 1. 0. 1. 0. 1. 1. 0. 0. 0. 1. 0. 0. 0. 1. 1. 1. 0. 0. 0. 0. 1. 0.
 1. 1. 1. 0. 1. 1. 0. 1. 1. 1. 1. 1. 0. 1. 1. 1. 1. 1. 1. 1. 1. 0. 1. 1.
 1. 1. 1. 1. 1. 0. 1. 1. 1. 1. 0. 1. 1. 1. 1. 1. 1. 1. 1. 1. 1. 1. 0.]

>  <MACCS_pki_G>  (127) 
6.0667

>  <MACCS_pki_D>  (127) 
6.617358

>  <MACCS_pki_B>  (127) 
5.498915

>  <MACCS_pki_A>  (127) 
5.962284

>  <MACCS_SelB>  (127) 
0.567786

>  <MACCS_SelA>  (127) 
0.104417

>  <MACCS_SelD>  (127) 
-0.550658

>  <MACCSAvgABSel>  (127) 
0.336101

>  <Pharm2D_FP>  (127) 
[0. 0. 0. ... 0. 0. 0.]

>  <Pharm2D_pki_G>  (127) 
6.393539

>  <Pharm2D_pki_D>  (127) 
5.886146

>  <Pharm2D_pki_B>  (127) 
5.806465

>  <Pharm2D_pki_A>  (127) 
5.857271

>  <Pharm2D_SelB>  (127) 
0.587074

>  <Pharm2D_SelA>  (127) 
0.536268

>  <Pharm2D_SelD>  (127) 
0.507393

>  <Pharm2DAvgABSel>  (127) 
0.561671

>  <QED>  (127) 
0.534379

$$$$
DB08957
     RDKit          2D

 30 31  0  0  0  0  0  0  0  0999 V2000
    2.8578    2.4750    0.0000 C   0  0  0  0  0  0  0  0  0  0  0  0
    2.1434    2.0625    0.0000 C   0  0  0  0  0  0  0  0  0  0  0  0
    3.5723    2.0625    0.0000 C   0  0  0  0  0  0  0  0  0  0  0  0
    1.4289    2.4750    0.0000 C   0  0  0  0  0  0  0  0  0  0  0  0
    7.8591    2.0625    0.0000 C   0  0  0  0  0  0  0  0  0  0  0  0
   -2.8578    2.4750    0.0000 C   0  0  0  0  0  0  0  0  0  0  0  0
    8.5736    2.4750    0.0000 C   0  0  0  0  0  0  0  0  0  0  0  0
   -3.5723    2.0625    0.0000 C   0  0  0  0  0  0  0  0  0  0  0  0
    4.2868    2.4750    0.0000 C   0  0  0  0  0  0  0  0  0  0  0  0
    0.7144    2.0625    0.0000 C   0  0  0  0  0  0  0  0  0  0  0  0
    7.1447    3.3000    0.0000 C   0  0  0  0  0  0  0  0  0  0  0  0
   -2.1434    1.2375    0.0000 C   0  0  0  0  0  0  0  0  0  0  0  0
    5.7157    2.4750    0.0000 C   0  0  0  0  0  0  0  0  0  0  0  0
   -0.7144    2.0625    0.0000 C   0  0  0  0  0  0  0  0  0  0  0  0
    7.1447    2.4750    0.0000 C   0  0  0  0  0  0  0  0  0  0  0  0
   -2.1434    2.0625    0.0000 C   0  0  0  0  0  0  0  0  0  0  0  0
    8.5736    3.3000    0.0000 C   0  0  0  0  0  0  0  0  0  0  0  0
   -3.5723    1.2375    0.0000 C   0  0  0  0  0  0  0  0  0  0  0  0
    7.8591    3.7125    0.0000 C   0  0  0  0  0  0  0  0  0  0  0  0
   -2.8578    0.8250    0.0000 C   0  0  0  0  0  0  0  0  0  0  0  0
    6.4302    2.0625    0.0000 C   0  0  0  0  0  0  0  0  0  0  0  0
   -1.4289    2.4750    0.0000 C   0  0  0  0  0  0  0  0  0  0  0  0
    5.0012    2.0625    0.0000 N   0  0  0  0  0  0  0  0  0  0  0  0
    0.0000    2.4750    0.0000 N   0  0  0  0  0  0  0  0  0  0  0  0
    9.2881    3.7125    0.0000 O   0  0  0  0  0  0  0  0  0  0  0  0
   -4.2868    0.8250    0.0000 O   0  0  0  0  0  0  0  0  0  0  0  0
    7.8591    4.5375    0.0000 O   0  0  0  0  0  0  0  0  0  0  0  0
   -2.8578    0.0000    0.0000 O   0  0  0  0  0  0  0  0  0  0  0  0
    6.4302    1.2375    0.0000 O   0  0  0  0  0  0  0  0  0  0  0  0
   -1.4289    3.3000    0.0000 O   0  0  0  0  0  0  0  0  0  0  0  0
  2  1  1  0
  3  1  1  0
  4  2  1  0
  7  5  2  0
  8  6  2  0
  9  3  1  0
 10  4  1  0
 15  5  1  0
 15 11  2  0
 16  6  1  0
 16 12  2  0
 17  7  1  0
 18  8  1  0
 19 11  1  0
 19 17  2  0
 20 12  1  0
 20 18  2  0
 21 13  1  0
 21 15  1  0
 22 14  1  0
 22 16  1  0
 23  9  1  0
 23 13  1  0
 24 10  1  0
 24 14  1  0
 25 17  1  0
 26 18  1  0
 27 19  1  0
 28 20  1  0
 29 21  1  0
 30 22  1  0
M  END
>  <ALOGPS_LOGP>  (128) 
1.14

>  <ALOGPS_LOGS>  (128) 
-3.33

>  <ALOGPS_SOLUBILITY>  (128) 
1.99e-01 g/l

>  <DATABASE_NAME>  (128) 
drugbank

>  <DRUGBANK_ID>  (128) 
DB08957

>  <DRUG_GROUPS>  (128) 
experimental; withdrawn

>  <EXACT_MASS>  (128) 
420.226036766

>  <FORMULA>  (128) 
C22H32N2O6

>  <GENERIC_NAME>  (128) 
Hexoprenaline

>  <ID>  (128) 


>  <INCHI_IDENTIFIER>  (128) 
InChI=1S/C22H32N2O6/c25-17-7-5-15(11-19(17)27)21(29)13-23-9-3-1-2-4-10-24-14-22(30)16-6-8-18(26)20(28)12-16/h5-8,11-12,21-30H,1-4,9-10,13-14H2

>  <INCHI_KEY>  (128) 
OXLZNBCNGJWPRV-UHFFFAOYSA-N

>  <INTERNATIONAL_BRANDS>  (128) 
Argocian; Etoscol; Gynipral; Hexoline; Ipradol; Taicopin

>  <JCHEM_ACCEPTOR_COUNT>  (128) 
8

>  <JCHEM_ATOM_COUNT>  (128) 
nan

>  <JCHEM_AVERAGE_POLARIZABILITY>  (128) 
45.95956498304316

>  <JCHEM_BIOAVAILABILITY>  (128) 
0

>  <JCHEM_DONOR_COUNT>  (128) 
8

>  <JCHEM_FORMAL_CHARGE>  (128) 
0

>  <JCHEM_GHOSE_FILTER>  (128) 
1

>  <JCHEM_IUPAC>  (128) 
4-{2-[(6-{[2-(3,4-dihydroxyphenyl)-2-hydroxyethyl]amino}hexyl)amino]-1-hydroxyethyl}benzene-1,2-diol

>  <JCHEM_LOGP>  (128) 
0.21793020466054183

>  <JCHEM_MDDR_LIKE_RULE>  (128) 
0

>  <JCHEM_NUMBER_OF_RINGS>  (128) 
2

>  <JCHEM_PHYSIOLOGICAL_CHARGE>  (128) 
2

>  <JCHEM_PKA>  (128) 
9.188558389974705

>  <JCHEM_PKA_STRONGEST_ACIDIC>  (128) 
8.685962897108913

>  <JCHEM_PKA_STRONGEST_BASIC>  (128) 
10.177128940899111

>  <JCHEM_POLAR_SURFACE_AREA>  (128) 
145.44

>  <JCHEM_REFRACTIVITY>  (128) 
115.20359999999997

>  <JCHEM_ROTATABLE_BOND_COUNT>  (128) 
13

>  <JCHEM_RULE_OF_FIVE>  (128) 
0

>  <JCHEM_TRADITIONAL_IUPAC>  (128) 
hexoprenaline

>  <JCHEM_VEBER_RULE>  (128) 
0

>  <MOLECULAR_WEIGHT>  (128) 
420.4993

>  <PRODUCTS>  (128) 
nan

>  <SALTS>  (128) 
Hexoprenaline Sulfate

>  <SECONDARY_ACCESSION_NUMBERS>  (128) 
nan

>  <SMILES>  (128) 
OC(CNCCCCCCNCC(O)C1=CC(O)=C(O)C=C1)C1=CC(O)=C(O)C=C1

>  <SYNONYMS>  (128) 
nan

>  <ECFP_FP>  (128) 
<rdkit.DataStructs.cDataStructs.ExplicitBitVect object at 0xa26b68c60>

>  <pki_G>  (128) 
5.702393

>  <pki_D>  (128) 
5.608191

>  <pki_B>  (128) 
5.426806

>  <pki_A>  (128) 
5.199964

>  <SelB>  (128) 
0.275587

>  <SelA>  (128) 
0.502429

>  <SelD>  (128) 
0.094202

>  <AvgABSel>  (128) 
0.389008

>  <MACCS_FP>  (128) 
[0. 0. 0. 0. 0. 0. 0. 0. 0. 0. 0. 0. 0. 0. 0. 0. 0. 0. 0. 0. 0. 0. 0. 0.
 0. 0. 0. 0. 0. 0. 0. 0. 0. 0. 0. 0. 0. 0. 0. 0. 0. 0. 0. 0. 0. 0. 0. 0.
 0. 0. 0. 0. 0. 0. 1. 0. 0. 0. 0. 0. 0. 0. 0. 0. 0. 0. 0. 0. 0. 0. 0. 0.
 1. 0. 0. 0. 0. 0. 0. 0. 0. 0. 1. 0. 0. 0. 1. 0. 0. 0. 1. 1. 0. 0. 0. 1.
 0. 0. 0. 0. 1. 0. 0. 0. 1. 0. 0. 0. 0. 0. 0. 1. 0. 1. 0. 0. 0. 0. 1. 0.
 0. 0. 0. 0. 0. 1. 0. 1. 1. 1. 0. 1. 1. 0. 0. 0. 0. 0. 1. 1. 1. 0. 1. 1.
 1. 1. 1. 1. 0. 0. 1. 1. 1. 1. 0. 1. 0. 1. 1. 1. 0. 1. 1. 1. 1. 1. 0.]

>  <MACCS_pki_G>  (128) 
5.998478

>  <MACCS_pki_D>  (128) 
5.671069

>  <MACCS_pki_B>  (128) 
5.958439

>  <MACCS_pki_A>  (128) 
6.041834

>  <MACCS_SelB>  (128) 
0.040039

>  <MACCS_SelA>  (128) 
-0.043356

>  <MACCS_SelD>  (128) 
0.327409

>  <MACCSAvgABSel>  (128) 
-0.001659

>  <Pharm2D_FP>  (128) 
[0. 0. 0. ... 0. 0. 0.]

>  <Pharm2D_pki_G>  (128) 
6.465736

>  <Pharm2D_pki_D>  (128) 
5.723726

>  <Pharm2D_pki_B>  (128) 
5.950591

>  <Pharm2D_pki_A>  (128) 
5.427774

>  <Pharm2D_SelB>  (128) 
0.515145

>  <Pharm2D_SelA>  (128) 
1.037962

>  <Pharm2D_SelD>  (128) 
0.74201

>  <Pharm2DAvgABSel>  (128) 
0.776554

>  <QED>  (128) 
0.181442

$$$$
DB08503
     RDKit          2D

 22 24  0  0  0  0  0  0  0  0999 V2000
   -2.0204    0.0166    0.0000 C   0  0  0  0  0  0  0  0  0  0  0  0
   -2.6878   -0.4683    0.0000 C   0  0  0  0  0  0  0  0  0  0  0  0
   -2.6016   -1.2888    0.0000 C   0  0  0  0  0  0  0  0  0  0  0  0
   -3.2691   -1.7737    0.0000 C   0  0  0  0  0  0  0  0  0  0  0  0
   -1.8479   -1.6244    0.0000 C   0  0  0  0  0  0  0  0  0  0  0  0
   -1.1805   -1.1395    0.0000 C   0  0  0  0  0  0  0  0  0  0  0  0
   -1.2667   -0.3190    0.0000 C   0  0  0  0  0  0  0  0  0  0  0  0
   -0.5993    0.1660    0.0000 C   0  0  0  0  0  0  0  0  0  0  0  0
    0.1853   -0.0890    0.0000 C   0  0  0  0  0  0  0  0  0  0  0  0
   -0.5993    0.9910    0.0000 N   0  0  0  0  0  0  0  0  0  0  0  0
    0.1853    1.2459    0.0000 O   0  0  0  0  0  0  0  0  0  0  0  0
    0.6702    0.5785    0.0000 C   0  0  0  0  0  0  0  0  0  0  0  0
    1.0827    1.2929    0.0000 O   0  0  0  0  0  0  0  0  0  0  0  0
    1.9077    1.2929    0.0000 C   0  0  0  0  0  0  0  0  0  0  0  0
    2.3202    2.0074    0.0000 C   0  0  0  0  0  0  0  0  0  0  0  0
    1.9077    2.7219    0.0000 O   0  0  0  0  0  0  0  0  0  0  0  0
    2.3202    0.5785    0.0000 C   0  0  0  0  0  0  0  0  0  0  0  0
    3.1452    0.5785    0.0000 O   0  0  0  0  0  0  0  0  0  0  0  0
    1.9077   -0.1360    0.0000 C   0  0  0  0  0  0  0  0  0  0  0  0
    2.3202   -0.8505    0.0000 O   0  0  0  0  0  0  0  0  0  0  0  0
    1.0827   -0.1360    0.0000 C   0  0  0  0  0  0  0  0  0  0  0  0
    0.6702   -0.8505    0.0000 O   0  0  0  0  0  0  0  0  0  0  0  0
  1  7  2  0
  1  2  1  0
  2  3  2  0
  3  5  1  0
  3  4  1  0
  6  5  2  0
  7  6  1  0
  8  7  1  1
  9  8  1  0
 10  8  1  0
 11 10  1  0
 12 13  1  0
 12 11  1  0
 12  9  1  6
 14 15  1  6
 14 13  1  0
 16 15  1  0
 17 14  1  0
 17 18  1  1
 19 17  1  0
 19 21  1  0
 19 20  1  6
 21 12  1  0
 21 22  1  1
M  END
>  <ALOGPS_LOGP>  (129) 
-0.33

>  <ALOGPS_LOGS>  (129) 
-1.05

>  <ALOGPS_SOLUBILITY>  (129) 
2.79e+01 g/l

>  <DATABASE_NAME>  (129) 
drugbank

>  <DRUGBANK_ID>  (129) 
DB08503

>  <DRUG_GROUPS>  (129) 
experimental

>  <EXACT_MASS>  (129) 
311.136887409

>  <FORMULA>  (129) 
C15H21NO6

>  <GENERIC_NAME>  (129) 
(3S,5R,7R,8S,9S,10R)-7-(hydroxymethyl)-3-(4-methylphenyl)-1,6-dioxa-2-azaspiro[4.5]decane-8,9,10-triol

>  <ID>  (129) 
S13

>  <INCHI_IDENTIFIER>  (129) 
InChI=1S/C15H21NO6/c1-8-2-4-9(5-3-8)10-6-15(22-16-10)14(20)13(19)12(18)11(7-17)21-15/h2-5,10-14,16-20H,6-7H2,1H3/t10-,11+,12+,13-,14+,15+/m0/s1

>  <INCHI_KEY>  (129) 
HRCKGDOSPBFICB-MZHQWRCYSA-N

>  <INTERNATIONAL_BRANDS>  (129) 
nan

>  <JCHEM_ACCEPTOR_COUNT>  (129) 
7

>  <JCHEM_ATOM_COUNT>  (129) 
nan

>  <JCHEM_AVERAGE_POLARIZABILITY>  (129) 
31.40445911351749

>  <JCHEM_BIOAVAILABILITY>  (129) 
1

>  <JCHEM_DONOR_COUNT>  (129) 
5

>  <JCHEM_FORMAL_CHARGE>  (129) 
0

>  <JCHEM_GHOSE_FILTER>  (129) 
1

>  <JCHEM_IUPAC>  (129) 
(3S,5R,7R,8S,9S,10R)-7-(hydroxymethyl)-3-(4-methylphenyl)-1,6-dioxa-2-azaspiro[4.5]decane-8,9,10-triol

>  <JCHEM_LOGP>  (129) 
0.07792498366666595

>  <JCHEM_MDDR_LIKE_RULE>  (129) 
0

>  <JCHEM_NUMBER_OF_RINGS>  (129) 
3

>  <JCHEM_PHYSIOLOGICAL_CHARGE>  (129) 
0

>  <JCHEM_PKA>  (129) 
13.155473189547674

>  <JCHEM_PKA_STRONGEST_ACIDIC>  (129) 
12.074514151734444

>  <JCHEM_PKA_STRONGEST_BASIC>  (129) 
4.1655078602364615

>  <JCHEM_POLAR_SURFACE_AREA>  (129) 
111.41000000000001

>  <JCHEM_REFRACTIVITY>  (129) 
86.23500000000003

>  <JCHEM_ROTATABLE_BOND_COUNT>  (129) 
2

>  <JCHEM_RULE_OF_FIVE>  (129) 
1

>  <JCHEM_TRADITIONAL_IUPAC>  (129) 
(3S,5R,7R,8S,9S,10R)-7-(hydroxymethyl)-3-(4-methylphenyl)-1,6-dioxa-2-azaspiro[4.5]decane-8,9,10-triol

>  <JCHEM_VEBER_RULE>  (129) 
0

>  <MOLECULAR_WEIGHT>  (129) 
311.3303

>  <PRODUCTS>  (129) 
nan

>  <SALTS>  (129) 
nan

>  <SECONDARY_ACCESSION_NUMBERS>  (129) 
nan

>  <SMILES>  (129) 
[H][C@]1(C[C@]2(ON1)O[C@]([H])(CO)[C@@]([H])(O)[C@]([H])(O)[C@@]2([H])O)C1=CC=C(C)C=C1

>  <SYNONYMS>  (129) 
nan

>  <ECFP_FP>  (129) 
<rdkit.DataStructs.cDataStructs.ExplicitBitVect object at 0xa26b2d350>

>  <pki_G>  (129) 
5.701392

>  <pki_D>  (129) 
5.947796

>  <pki_B>  (129) 
5.423993

>  <pki_A>  (129) 
5.183125

>  <SelB>  (129) 
0.277399

>  <SelA>  (129) 
0.518267

>  <SelD>  (129) 
-0.246404

>  <AvgABSel>  (129) 
0.397833

>  <MACCS_FP>  (129) 
[0. 0. 0. 0. 0. 0. 0. 0. 0. 0. 0. 0. 0. 0. 0. 0. 0. 0. 0. 0. 0. 0. 0. 0.
 1. 0. 0. 0. 0. 0. 0. 0. 0. 0. 0. 0. 0. 0. 0. 0. 0. 0. 0. 0. 0. 0. 0. 0.
 0. 0. 0. 0. 0. 1. 1. 0. 0. 1. 0. 0. 0. 0. 1. 0. 0. 0. 0. 0. 0. 1. 0. 1.
 1. 0. 0. 0. 0. 0. 0. 0. 0. 0. 1. 1. 0. 0. 0. 0. 0. 1. 1. 1. 0. 0. 1. 1.
 1. 1. 1. 0. 0. 0. 1. 0. 1. 1. 0. 0. 0. 1. 0. 1. 1. 0. 0. 0. 0. 0. 0. 0.
 1. 1. 0. 1. 1. 0. 0. 1. 1. 0. 0. 1. 1. 0. 0. 0. 0. 1. 0. 1. 1. 0. 0. 1.
 0. 1. 1. 0. 0. 0. 1. 1. 1. 1. 0. 1. 1. 1. 1. 1. 1. 1. 1. 1. 1. 1. 0.]

>  <MACCS_pki_G>  (129) 
6.729376

>  <MACCS_pki_D>  (129) 
6.025458

>  <MACCS_pki_B>  (129) 
6.111369

>  <MACCS_pki_A>  (129) 
6.012834

>  <MACCS_SelB>  (129) 
0.618007

>  <MACCS_SelA>  (129) 
0.716542

>  <MACCS_SelD>  (129) 
0.703917

>  <MACCSAvgABSel>  (129) 
0.667274

>  <Pharm2D_FP>  (129) 
[0. 0. 0. ... 0. 0. 0.]

>  <Pharm2D_pki_G>  (129) 
5.819638

>  <Pharm2D_pki_D>  (129) 
5.576942

>  <Pharm2D_pki_B>  (129) 
5.377086

>  <Pharm2D_pki_A>  (129) 
5.438032

>  <Pharm2D_SelB>  (129) 
0.442553

>  <Pharm2D_SelA>  (129) 
0.381607

>  <Pharm2D_SelD>  (129) 
0.242696

>  <Pharm2DAvgABSel>  (129) 
0.41208

>  <QED>  (129) 
0.482674

$$$$
DB03510
     RDKit          2D

 27 29  0  0  1  0  0  0  0  0999 V2000
    1.7798    3.9841    0.0000 C   0  0  0  0  0  0  0  0  0  0  0  0
    3.9934    0.8250    0.0000 C   0  0  0  0  0  0  0  0  0  0  0  0
    1.2949    0.4125    0.0000 C   0  0  0  0  0  0  0  0  0  0  0  0
    1.5249    3.1994    0.0000 C   0  0  0  0  0  0  0  0  0  0  0  0
    2.5645    0.0000    0.0000 C   0  0  0  0  0  0  0  0  0  0  0  0
    0.7403    2.9445    0.0000 C   0  0  0  0  0  0  0  0  0  0  0  0
    0.7403    2.1195    0.0000 C   0  0  0  0  0  0  0  0  0  0  0  0
    2.5645    0.8250    0.0000 C   0  0  0  0  0  0  0  0  0  0  0  0
    3.2789   -0.4125    0.0000 C   0  0  0  0  0  0  0  0  0  0  0  0
    1.5249    1.8646    0.0000 C   0  0  0  0  0  0  0  0  0  0  0  0
    3.2789    1.2375    0.0000 N   0  0  0  0  0  0  0  0  0  0  0  0
    3.9934    0.0000    0.0000 N   0  0  0  0  0  0  0  0  0  0  0  0
    1.7798   -0.2549    0.0000 N   0  0  0  0  0  0  0  0  0  0  0  0
    1.7798    1.0799    0.0000 N   0  0  0  0  0  0  0  0  0  0  0  0
    0.0728    3.4294    0.0000 O   0  0  0  0  0  0  0  0  0  0  0  0
    0.0728    1.6346    0.0000 O   0  0  0  0  0  0  0  0  0  0  0  0
    1.7377    6.1664    0.0000 O   0  0  0  0  0  0  0  0  0  0  0  0
    0.6981    5.6367    0.0000 O   0  0  0  0  0  0  0  0  0  0  0  0
    2.2674    5.1268    0.0000 O   0  0  0  0  0  0  0  0  0  0  0  0
    4.7079   -2.0625    0.0000 O   0  0  0  0  0  0  0  0  0  0  0  0
    3.5809   -2.3645    0.0000 O   0  0  0  0  0  0  0  0  0  0  0  0
    4.4059   -0.9355    0.0000 O   0  0  0  0  0  0  0  0  0  0  0  0
    1.2278    4.5972    0.0000 O   0  0  0  0  0  0  0  0  0  0  0  0
    2.0098    2.5320    0.0000 O   0  0  0  0  0  0  0  0  0  0  0  0
    3.2789   -1.2375    0.0000 O   0  0  0  0  0  0  0  0  0  0  0  0
    1.4827    5.3818    0.0000 P   0  0  0  0  0  0  0  0  0  0  0  0
    3.9934   -1.6500    0.0000 P   0  0  0  0  0  0  0  0  0  0  0  0
  4  1  1  1
  6  4  1  0
  7  6  1  0
  8  5  2  0
  9  5  1  0
 10  7  1  0
 11  2  2  0
 11  8  1  0
 12  2  1  0
 12  9  2  0
 13  3  2  0
 13  5  1  0
 14  3  1  0
 14  8  1  0
 10 14  1  1
  6 15  1  6
  7 16  1  6
 23  1  1  0
 24  4  1  0
 24 10  1  0
 25  9  1  0
 26 17  1  0
 26 18  1  0
 26 19  2  0
 26 23  1  0
 27 20  1  0
 27 21  1  0
 27 22  2  0
 27 25  1  0
M  END
>  <ALOGPS_LOGP>  (130) 
-1.62

>  <ALOGPS_LOGS>  (130) 
-2.10

>  <ALOGPS_SOLUBILITY>  (130) 
3.37e+00 g/l

>  <DATABASE_NAME>  (130) 
drugbank

>  <DRUGBANK_ID>  (130) 
DB03510

>  <DRUG_GROUPS>  (130) 
experimental

>  <EXACT_MASS>  (130) 
428.013430334

>  <FORMULA>  (130) 
C10H14N4O11P2

>  <GENERIC_NAME>  (130) 
6-O-Phosphoryl Inosine Monophosphate

>  <ID>  (130) 


>  <INCHI_IDENTIFIER>  (130) 
InChI=1S/C10H14N4O11P2/c15-6-4(1-23-26(17,18)19)24-10(7(6)16)14-3-13-5-8(14)11-2-12-9(5)25-27(20,21)22/h2-4,6-7,10,15-16H,1H2,(H2,17,18,19)(H2,20,21,22)/t4-,6-,7-,10-/m1/s1

>  <INCHI_KEY>  (130) 
RXRZOKQPANIEDW-KQYNXXCUSA-N

>  <INTERNATIONAL_BRANDS>  (130) 
nan

>  <JCHEM_ACCEPTOR_COUNT>  (130) 
12

>  <JCHEM_ATOM_COUNT>  (130) 
nan

>  <JCHEM_AVERAGE_POLARIZABILITY>  (130) 
33.757113839112534

>  <JCHEM_BIOAVAILABILITY>  (130) 
0

>  <JCHEM_DONOR_COUNT>  (130) 
6

>  <JCHEM_FORMAL_CHARGE>  (130) 
0

>  <JCHEM_GHOSE_FILTER>  (130) 
0

>  <JCHEM_IUPAC>  (130) 
{[(2R,3S,4R,5R)-3,4-dihydroxy-5-[6-(phosphonooxy)-9H-purin-9-yl]oxolan-2-yl]methoxy}phosphonic acid

>  <JCHEM_LOGP>  (130) 
-3.381952691906402

>  <JCHEM_MDDR_LIKE_RULE>  (130) 
1

>  <JCHEM_NUMBER_OF_RINGS>  (130) 
3

>  <JCHEM_PHYSIOLOGICAL_CHARGE>  (130) 
-4

>  <JCHEM_PKA>  (130) 
1.3145348861660189

>  <JCHEM_PKA_STRONGEST_ACIDIC>  (130) 
0.6879545485061795

>  <JCHEM_PKA_STRONGEST_BASIC>  (130) 
2.1190125452069943

>  <JCHEM_POLAR_SURFACE_AREA>  (130) 
226.80999999999995

>  <JCHEM_REFRACTIVITY>  (130) 
82.22189999999998

>  <JCHEM_ROTATABLE_BOND_COUNT>  (130) 
6

>  <JCHEM_RULE_OF_FIVE>  (130) 
0

>  <JCHEM_TRADITIONAL_IUPAC>  (130) 
[(2R,3S,4R,5R)-3,4-dihydroxy-5-[6-(phosphonooxy)purin-9-yl]oxolan-2-yl]methoxyphosphonic acid

>  <JCHEM_VEBER_RULE>  (130) 
0

>  <MOLECULAR_WEIGHT>  (130) 
428.1859

>  <PRODUCTS>  (130) 
nan

>  <SALTS>  (130) 
nan

>  <SECONDARY_ACCESSION_NUMBERS>  (130) 
EXPT01873

>  <SMILES>  (130) 
[H][C@]1(COP(O)(O)=O)O[C@@]([H])(N2C=NC3=C2N=CN=C3OP(O)(O)=O)[C@]([H])(O)[C@]1([H])O

>  <SYNONYMS>  (130) 
nan

>  <ECFP_FP>  (130) 
<rdkit.DataStructs.cDataStructs.ExplicitBitVect object at 0xa268dd760>

>  <pki_G>  (130) 
5.695354

>  <pki_D>  (130) 
5.717275

>  <pki_B>  (130) 
5.346049

>  <pki_A>  (130) 
5.068576

>  <SelB>  (130) 
0.349305

>  <SelA>  (130) 
0.626779

>  <SelD>  (130) 
-0.021921

>  <AvgABSel>  (130) 
0.488042

>  <MACCS_FP>  (130) 
[0. 0. 0. 0. 0. 0. 0. 0. 0. 0. 0. 0. 0. 0. 0. 0. 0. 0. 0. 0. 0. 0. 0. 0.
 0. 0. 0. 0. 0. 1. 0. 0. 0. 0. 0. 0. 0. 0. 1. 0. 0. 0. 0. 1. 0. 0. 0. 0.
 1. 0. 0. 0. 0. 0. 1. 0. 0. 1. 0. 0. 0. 0. 1. 0. 0. 1. 0. 0. 0. 1. 0. 0.
 1. 0. 0. 1. 0. 1. 0. 1. 1. 0. 0. 1. 0. 1. 0. 0. 0. 1. 1. 1. 1. 0. 0. 1.
 1. 1. 1. 0. 0. 1. 1. 0. 0. 1. 1. 0. 0. 1. 1. 0. 1. 1. 0. 0. 0. 1. 0. 0.
 1. 1. 1. 0. 1. 1. 1. 1. 0. 0. 1. 1. 1. 1. 0. 0. 1. 1. 0. 1. 1. 0. 1. 1.
 0. 0. 1. 0. 1. 0. 1. 0. 1. 1. 0. 1. 1. 1. 1. 1. 0. 1. 1. 1. 1. 1. 0.]

>  <MACCS_pki_G>  (130) 
6.417908

>  <MACCS_pki_D>  (130) 
5.840321

>  <MACCS_pki_B>  (130) 
5.74978

>  <MACCS_pki_A>  (130) 
5.600444

>  <MACCS_SelB>  (130) 
0.668128

>  <MACCS_SelA>  (130) 
0.817464

>  <MACCS_SelD>  (130) 
0.577588

>  <MACCSAvgABSel>  (130) 
0.742796

>  <Pharm2D_FP>  (130) 
[0. 0. 0. ... 0. 0. 0.]

>  <Pharm2D_pki_G>  (130) 
6.316367

>  <Pharm2D_pki_D>  (130) 
6.394073

>  <Pharm2D_pki_B>  (130) 
5.592905

>  <Pharm2D_pki_A>  (130) 
5.831456

>  <Pharm2D_SelB>  (130) 
0.723462

>  <Pharm2D_SelA>  (130) 
0.48491

>  <Pharm2D_SelD>  (130) 
-0.077707

>  <Pharm2DAvgABSel>  (130) 
0.604186

>  <QED>  (130) 
0.274322

$$$$
DB04263
     RDKit          2D

 34 36  0  0  1  0  0  0  0  0999 V2000
   -2.8579    0.8250    0.0000 C   0  0  0  0  0  0  0  0  0  0  0  0
    1.7111   -0.7752    0.0000 C   0  0  0  0  0  0  0  0  0  0  0  0
    1.4289   -1.6500    0.0000 C   0  0  0  0  0  0  0  0  0  0  0  0
    0.0000    3.3000    0.0000 C   0  0  0  0  0  0  0  0  0  0  0  0
    1.4289    0.8250    0.0000 C   0  0  0  0  0  0  0  0  0  0  0  0
   -3.5724    1.2375    0.0000 C   0  0  0  0  0  0  0  0  0  0  0  0
   -0.7145    3.7125    0.0000 C   0  0  0  0  0  0  0  0  0  0  0  0
    0.0000    2.4750    0.0000 C   0  0  0  0  0  0  0  0  0  0  0  0
   -3.5724    3.7125    0.0000 C   0  0  0  0  0  0  0  0  0  0  0  0
   -4.2868    3.3000    0.0000 C   0  0  0  0  0  0  0  0  0  0  0  0
   -4.2868    2.4750    0.0000 C   0  0  0  0  0  0  0  0  0  0  0  0
   -1.4289    2.4750    0.0000 C   0  0  0  0  0  0  0  0  0  0  0  0
   -0.0000   -0.0000    0.0000 C   0  0  0  0  0  0  0  0  0  0  0  0
   -3.5724    2.0625    0.0000 C   0  0  0  0  0  0  0  0  0  0  0  0
   -1.4289    3.3000    0.0000 C   0  0  0  0  0  0  0  0  0  0  0  0
   -0.7145    2.0625    0.0000 C   0  0  0  0  0  0  0  0  0  0  0  0
    0.7145   -0.4125    0.0000 C   0  0  0  0  0  0  0  0  0  0  0  0
   -2.8579    3.3000    0.0000 C   0  0  0  0  0  0  0  0  0  0  0  0
   -0.0000    0.8250    0.0000 C   0  0  0  0  0  0  0  0  0  0  0  0
    1.4289   -0.0000    0.0000 C   0  0  0  0  0  0  0  0  0  0  0  0
   -0.7145    4.5375    0.0000 N   0  0  0  0  0  0  0  0  0  0  0  0
    0.7145    2.0625    0.0000 N   0  0  0  0  0  0  0  0  0  0  0  0
   -3.5724    4.5375    0.0000 N   0  0  0  0  0  0  0  0  0  0  0  0
    0.7145   -1.2375    0.0000 N   0  0  0  0  0  0  0  0  0  0  0  0
   -4.2868    0.8250    0.0000 O   0  0  0  0  0  0  0  0  0  0  0  0
   -5.0013    3.7125    0.0000 O   0  0  0  0  0  0  0  0  0  0  0  0
   -5.0013    2.0625    0.0000 O   0  0  0  0  0  0  0  0  0  0  0  0
   -2.1434    2.0625    0.0000 O   0  0  0  0  0  0  0  0  0  0  0  0
   -0.7145   -0.4125    0.0000 O   0  0  0  0  0  0  0  0  0  0  0  0
    2.2414    0.1433    0.0000 O   0  0  0  0  0  0  0  0  0  0  0  0
    0.7145    1.2375    0.0000 O   0  0  0  0  0  0  0  0  0  0  0  0
   -2.8579    2.4750    0.0000 O   0  0  0  0  0  0  0  0  0  0  0  0
   -2.1434    3.7125    0.0000 O   0  0  0  0  0  0  0  0  0  0  0  0
   -0.7145    1.2375    0.0000 O   0  0  0  0  0  0  0  0  0  0  0  0
  6  1  1  1
  7  4  1  0
  8  4  1  0
 10  9  1  0
 11 10  1  0
 14  6  1  0
 14 11  1  0
 15  7  1  0
 15 12  1  0
 16  8  1  0
 16 12  1  0
 17 13  1  0
 18  9  1  0
 19 13  1  0
 20  2  1  1
 20  5  1  0
 20 17  1  0
  7 21  1  1
  8 22  1  1
  9 23  1  1
 24  3  1  0
 17 24  1  6
  6 25  1  0
 10 26  1  6
 11 27  1  1
 12 28  1  1
 13 29  1  1
 20 30  1  0
 31  5  1  0
 31 19  1  0
 14 32  1  6
 32 18  1  0
 15 33  1  6
 18 33  1  1
 16 34  1  6
 19 34  1  1
M  END
>  <ALOGPS_LOGP>  (131) 
-2.41

>  <ALOGPS_LOGS>  (131) 
-0.93

>  <ALOGPS_SOLUBILITY>  (131) 
5.83e+01 g/l

>  <DATABASE_NAME>  (131) 
drugbank

>  <DRUGBANK_ID>  (131) 
DB04263

>  <DRUG_GROUPS>  (131) 
experimental

>  <EXACT_MASS>  (131) 
496.27444352

>  <FORMULA>  (131) 
C20H40N4O10

>  <GENERIC_NAME>  (131) 
Geneticin

>  <ID>  (131) 


>  <INCHI_IDENTIFIER>  (131) 
InChI=1S/C20H40N4O10/c1-6(25)14-11(27)10(26)9(23)18(32-14)33-15-7(21)4-8(22)16(12(15)28)34-19-13(29)17(24-3)20(2,30)5-31-19/h6-19,24-30H,4-5,21-23H2,1-3H3/t6-,7+,8-,9-,10-,11+,12+,13-,14-,15-,16+,17-,18-,19-,20+/m1/s1

>  <INCHI_KEY>  (131) 
BRZYSWJRSDMWLG-DJWUNRQOSA-N

>  <INTERNATIONAL_BRANDS>  (131) 
nan

>  <JCHEM_ACCEPTOR_COUNT>  (131) 
14

>  <JCHEM_ATOM_COUNT>  (131) 
nan

>  <JCHEM_AVERAGE_POLARIZABILITY>  (131) 
50.5512806116147

>  <JCHEM_BIOAVAILABILITY>  (131) 
0

>  <JCHEM_DONOR_COUNT>  (131) 
10

>  <JCHEM_FORMAL_CHARGE>  (131) 
0

>  <JCHEM_GHOSE_FILTER>  (131) 
0

>  <JCHEM_IUPAC>  (131) 
(2R,3S,4R,5R,6S)-5-amino-6-{[(1R,2S,3S,4R,6S)-4,6-diamino-3-{[(2R,3R,4R,5R)-3,5-dihydroxy-5-methyl-4-(methylamino)oxan-2-yl]oxy}-2-hydroxycyclohexyl]oxy}-2-[(1R)-1-hydroxyethyl]oxane-3,4-diol

>  <JCHEM_LOGP>  (131) 
-5.300846420333334

>  <JCHEM_MDDR_LIKE_RULE>  (131) 
1

>  <JCHEM_NUMBER_OF_RINGS>  (131) 
3

>  <JCHEM_PHYSIOLOGICAL_CHARGE>  (131) 
4

>  <JCHEM_PKA>  (131) 
12.915861636790826

>  <JCHEM_PKA_STRONGEST_ACIDIC>  (131) 
12.420779456066622

>  <JCHEM_PKA_STRONGEST_BASIC>  (131) 
9.790481633074313

>  <JCHEM_POLAR_SURFACE_AREA>  (131) 
248.38999999999993

>  <JCHEM_REFRACTIVITY>  (131) 
114.00359999999998

>  <JCHEM_ROTATABLE_BOND_COUNT>  (131) 
6

>  <JCHEM_RULE_OF_FIVE>  (131) 
0

>  <JCHEM_TRADITIONAL_IUPAC>  (131) 
(2R,3S,4R,5R,6S)-5-amino-6-{[(1R,2S,3S,4R,6S)-4,6-diamino-3-{[(2R,3R,4R,5R)-3,5-dihydroxy-5-methyl-4-(methylamino)oxan-2-yl]oxy}-2-hydroxycyclohexyl]oxy}-2-[(1R)-1-hydroxyethyl]oxane-3,4-diol

>  <JCHEM_VEBER_RULE>  (131) 
0

>  <MOLECULAR_WEIGHT>  (131) 
496.5524

>  <PRODUCTS>  (131) 
nan

>  <SALTS>  (131) 
nan

>  <SECONDARY_ACCESSION_NUMBERS>  (131) 
EXPT01586

>  <SMILES>  (131) 
[H][C@](C)(O)[C@@]1([H])O[C@]([H])(O[C@]2([H])[C@@]([H])(N)C[C@@]([H])(N)[C@]([H])(O[C@@]3([H])OC[C@](C)(O)[C@]([H])(NC)[C@@]3([H])O)[C@@]2([H])O)[C@]([H])(N)[C@@]([H])(O)[C@]1([H])O

>  <SYNONYMS>  (131) 
nan

>  <ECFP_FP>  (131) 
<rdkit.DataStructs.cDataStructs.ExplicitBitVect object at 0xa2695ce40>

>  <pki_G>  (131) 
5.694277

>  <pki_D>  (131) 
6.025086

>  <pki_B>  (131) 
5.478662

>  <pki_A>  (131) 
5.448563

>  <SelB>  (131) 
0.215615

>  <SelA>  (131) 
0.245714

>  <SelD>  (131) 
-0.330809

>  <AvgABSel>  (131) 
0.230664

>  <MACCS_FP>  (131) 
[0. 0. 0. 0. 0. 0. 0. 0. 0. 0. 0. 0. 0. 0. 0. 0. 0. 0. 0. 0. 0. 0. 0. 0.
 0. 0. 0. 0. 0. 0. 0. 0. 0. 0. 0. 0. 0. 0. 0. 0. 0. 0. 0. 0. 0. 0. 0. 0.
 0. 0. 0. 0. 0. 1. 1. 0. 0. 1. 0. 0. 0. 0. 0. 0. 0. 0. 1. 0. 0. 0. 0. 0.
 1. 0. 0. 0. 0. 0. 0. 0. 1. 0. 0. 0. 1. 0. 0. 0. 0. 1. 1. 1. 0. 1. 0. 1.
 0. 1. 1. 0. 0. 0. 0. 0. 1. 0. 0. 0. 1. 1. 0. 1. 1. 0. 0. 1. 0. 0. 0. 0.
 1. 0. 0. 1. 0. 0. 1. 1. 0. 0. 0. 1. 1. 1. 0. 0. 0. 1. 0. 1. 1. 1. 1. 1.
 0. 1. 1. 0. 0. 1. 1. 1. 1. 1. 0. 0. 1. 1. 1. 1. 1. 1. 0. 1. 1. 1. 0.]

>  <MACCS_pki_G>  (131) 
6.182877

>  <MACCS_pki_D>  (131) 
5.87889

>  <MACCS_pki_B>  (131) 
6.140952

>  <MACCS_pki_A>  (131) 
6.01025

>  <MACCS_SelB>  (131) 
0.041925

>  <MACCS_SelA>  (131) 
0.172627

>  <MACCS_SelD>  (131) 
0.303987

>  <MACCSAvgABSel>  (131) 
0.107276

>  <Pharm2D_FP>  (131) 
[0. 0. 0. ... 0. 0. 0.]

>  <Pharm2D_pki_G>  (131) 
6.586306

>  <Pharm2D_pki_D>  (131) 
5.874431

>  <Pharm2D_pki_B>  (131) 
5.685172

>  <Pharm2D_pki_A>  (131) 
5.128721

>  <Pharm2D_SelB>  (131) 
0.901135

>  <Pharm2D_SelA>  (131) 
1.457586

>  <Pharm2D_SelD>  (131) 
0.711876

>  <Pharm2DAvgABSel>  (131) 
1.17936

>  <QED>  (131) 
0.164624

$$$$
DB03079
     RDKit          2D

 22 24  0  0  1  0  0  0  0  0999 V2000
    3.3523    1.1104    0.0000 C   0  0  0  0  0  0  0  0  0  0  0  0
    3.3523    1.9354    0.0000 C   0  0  0  0  0  0  0  0  0  0  0  0
    2.6378    0.6979    0.0000 C   0  0  0  0  0  0  0  0  0  0  0  0
    2.6378    2.3479    0.0000 C   0  0  0  0  0  0  0  0  0  0  0  0
    1.1387    5.0945    0.0000 C   0  0  0  0  0  0  0  0  0  0  0  0
    0.6538    1.5229    0.0000 C   0  0  0  0  0  0  0  0  0  0  0  0
    1.9233    1.1104    0.0000 C   0  0  0  0  0  0  0  0  0  0  0  0
    1.9233    1.9354    0.0000 C   0  0  0  0  0  0  0  0  0  0  0  0
    0.8838    4.3099    0.0000 C   0  0  0  0  0  0  0  0  0  0  0  0
    0.0992    4.0549    0.0000 C   0  0  0  0  0  0  0  0  0  0  0  0
    0.0992    3.2299    0.0000 C   0  0  0  0  0  0  0  0  0  0  0  0
    0.8838    2.9750    0.0000 C   0  0  0  0  0  0  0  0  0  0  0  0
    1.1387    0.8555    0.0000 N   0  0  0  0  0  0  0  0  0  0  0  0
    1.1387    2.1904    0.0000 N   0  0  0  0  0  0  0  0  0  0  0  0
   -0.5683    4.5399    0.0000 O   0  0  0  0  0  0  0  0  0  0  0  0
   -0.5683    2.7450    0.0000 O   0  0  0  0  0  0  0  0  0  0  0  0
    2.4556    6.8353    0.0000 O   0  0  0  0  0  0  0  0  0  0  0  0
    2.9853    5.7957    0.0000 O   0  0  0  0  0  0  0  0  0  0  0  0
    1.4160    6.3056    0.0000 O   0  0  0  0  0  0  0  0  0  0  0  0
    1.9457    5.2660    0.0000 O   0  0  0  0  0  0  0  0  0  0  0  0
    1.3687    3.6424    0.0000 O   0  0  0  0  0  0  0  0  0  0  0  0
    2.2006    6.0507    0.0000 P   0  0  0  0  0  0  0  0  0  0  0  0
  2  1  2  0
  3  1  1  0
  4  2  1  0
  7  3  2  0
  8  4  2  0
  8  7  1  0
  9  5  1  1
 10  9  1  0
 11 10  1  0
 12 11  1  0
 13  6  2  0
 13  7  1  0
 14  6  1  0
 14  8  1  0
 12 14  1  6
 10 15  1  6
 11 16  1  6
 20  5  1  0
 21  9  1  0
 21 12  1  0
 22 17  1  0
 22 18  1  0
 22 19  2  0
 22 20  1  0
M  END
>  <ALOGPS_LOGP>  (132) 
-0.74

>  <ALOGPS_LOGS>  (132) 
-2.14

>  <ALOGPS_SOLUBILITY>  (132) 
2.41e+00 g/l

>  <DATABASE_NAME>  (132) 
drugbank

>  <DRUGBANK_ID>  (132) 
DB03079

>  <DRUG_GROUPS>  (132) 
experimental

>  <EXACT_MASS>  (132) 
330.061687356

>  <FORMULA>  (132) 
C12H15N2O7P

>  <GENERIC_NAME>  (132) 
Alpha-Ribazole-5'-Phosphate Derivative

>  <ID>  (132) 


>  <INCHI_IDENTIFIER>  (132) 
InChI=1S/C12H15N2O7P/c15-10-9(5-20-22(17,18)19)21-12(11(10)16)14-6-13-7-3-1-2-4-8(7)14/h1-4,6,9-12,15-16H,5H2,(H2,17,18,19)/t9-,10-,11-,12+/m1/s1

>  <INCHI_KEY>  (132) 
YPYFPLLZCVEYCS-KKOKHZNYSA-N

>  <INTERNATIONAL_BRANDS>  (132) 
nan

>  <JCHEM_ACCEPTOR_COUNT>  (132) 
7

>  <JCHEM_ATOM_COUNT>  (132) 
nan

>  <JCHEM_AVERAGE_POLARIZABILITY>  (132) 
29.50641327433093

>  <JCHEM_BIOAVAILABILITY>  (132) 
1

>  <JCHEM_DONOR_COUNT>  (132) 
4

>  <JCHEM_FORMAL_CHARGE>  (132) 
0

>  <JCHEM_GHOSE_FILTER>  (132) 
0

>  <JCHEM_IUPAC>  (132) 
{[(2R,3S,4R,5S)-5-(1H-1,3-benzodiazol-1-yl)-3,4-dihydroxyoxolan-2-yl]methoxy}phosphonic acid

>  <JCHEM_LOGP>  (132) 
-2.4547708809611164

>  <JCHEM_MDDR_LIKE_RULE>  (132) 
0

>  <JCHEM_NUMBER_OF_RINGS>  (132) 
3

>  <JCHEM_PHYSIOLOGICAL_CHARGE>  (132) 
-2

>  <JCHEM_PKA>  (132) 
6.303787131583154

>  <JCHEM_PKA_STRONGEST_ACIDIC>  (132) 
1.2246736421171178

>  <JCHEM_PKA_STRONGEST_BASIC>  (132) 
5.312828334858844

>  <JCHEM_POLAR_SURFACE_AREA>  (132) 
134.27

>  <JCHEM_REFRACTIVITY>  (132) 
72.4377

>  <JCHEM_ROTATABLE_BOND_COUNT>  (132) 
4

>  <JCHEM_RULE_OF_FIVE>  (132) 
1

>  <JCHEM_TRADITIONAL_IUPAC>  (132) 
[(2R,3S,4R,5S)-5-(1,3-benzodiazol-1-yl)-3,4-dihydroxyoxolan-2-yl]methoxyphosphonic acid

>  <JCHEM_VEBER_RULE>  (132) 
0

>  <MOLECULAR_WEIGHT>  (132) 
330.2305

>  <PRODUCTS>  (132) 
nan

>  <SALTS>  (132) 
nan

>  <SECONDARY_ACCESSION_NUMBERS>  (132) 
EXPT00084

>  <SMILES>  (132) 
[H][C@]1(COP(O)(O)=O)O[C@]([H])(N2C=NC3=CC=CC=C23)[C@]([H])(O)[C@]1([H])O

>  <SYNONYMS>  (132) 
nan

>  <ECFP_FP>  (132) 
<rdkit.DataStructs.cDataStructs.ExplicitBitVect object at 0xa267a0350>

>  <pki_G>  (132) 
5.693065

>  <pki_D>  (132) 
5.784722

>  <pki_B>  (132) 
5.371953

>  <pki_A>  (132) 
5.42766

>  <SelB>  (132) 
0.321112

>  <SelA>  (132) 
0.265405

>  <SelD>  (132) 
-0.091657

>  <AvgABSel>  (132) 
0.293258

>  <MACCS_FP>  (132) 
[0. 0. 0. 0. 0. 0. 0. 0. 0. 0. 0. 0. 0. 0. 0. 0. 0. 0. 0. 0. 0. 0. 0. 0.
 0. 0. 0. 0. 0. 1. 0. 0. 0. 0. 0. 0. 0. 0. 0. 0. 0. 0. 0. 1. 0. 0. 0. 0.
 1. 0. 0. 0. 0. 0. 1. 0. 0. 1. 0. 0. 0. 0. 1. 0. 0. 1. 0. 0. 0. 1. 0. 0.
 1. 0. 0. 1. 0. 1. 0. 1. 0. 0. 0. 1. 0. 1. 0. 0. 0. 1. 1. 1. 1. 0. 0. 1.
 1. 1. 0. 0. 0. 1. 1. 0. 0. 1. 1. 0. 0. 1. 1. 0. 1. 0. 0. 0. 0. 1. 0. 0.
 1. 1. 1. 0. 1. 1. 1. 1. 0. 0. 1. 1. 1. 1. 0. 0. 0. 1. 0. 1. 1. 0. 1. 1.
 0. 0. 1. 0. 1. 0. 1. 0. 1. 1. 0. 1. 1. 1. 1. 1. 0. 1. 1. 1. 1. 1. 0.]

>  <MACCS_pki_G>  (132) 
6.396071

>  <MACCS_pki_D>  (132) 
5.719321

>  <MACCS_pki_B>  (132) 
5.712699

>  <MACCS_pki_A>  (132) 
5.523333

>  <MACCS_SelB>  (132) 
0.683371

>  <MACCS_SelA>  (132) 
0.872738

>  <MACCS_SelD>  (132) 
0.67675

>  <MACCSAvgABSel>  (132) 
0.778055

>  <Pharm2D_FP>  (132) 
[0. 0. 0. ... 0. 0. 0.]

>  <Pharm2D_pki_G>  (132) 
5.736474

>  <Pharm2D_pki_D>  (132) 
5.585364

>  <Pharm2D_pki_B>  (132) 
5.520785

>  <Pharm2D_pki_A>  (132) 
5.564886

>  <Pharm2D_SelB>  (132) 
0.215688

>  <Pharm2D_SelA>  (132) 
0.171588

>  <Pharm2D_SelD>  (132) 
0.15111

>  <Pharm2DAvgABSel>  (132) 
0.193638

>  <QED>  (132) 
0.564586

$$$$
DB01627
     RDKit          2D

 27 28  0  0  1  0  0  0  0  0999 V2000
    2.1434   -0.4125    0.0000 C   0  0  0  0  0  0  0  0  0  0  0  0
    5.2101   -6.4143    0.0000 C   0  0  0  0  0  0  0  0  0  0  0  0
    1.9605   -4.4120    0.0000 C   0  0  0  0  0  0  0  0  0  0  0  0
    8.4920   -6.0694    0.0000 C   0  0  0  0  0  0  0  0  0  0  0  0
    2.1434   -1.2375    0.0000 C   0  0  0  0  0  0  0  0  0  0  0  0
    2.8579   -1.6500    0.0000 C   0  0  0  0  0  0  0  0  0  0  0  0
    3.5253   -2.9599    0.0000 C   0  0  0  0  0  0  0  0  0  0  0  0
    2.1904   -2.9599    0.0000 C   0  0  0  0  0  0  0  0  0  0  0  0
    4.7252   -5.7469    0.0000 C   0  0  0  0  0  0  0  0  0  0  0  0
    2.8579   -2.4750    0.0000 C   0  0  0  0  0  0  0  0  0  0  0  0
    3.2704   -3.7445    0.0000 C   0  0  0  0  0  0  0  0  0  0  0  0
    5.0607   -4.9932    0.0000 C   0  0  0  0  0  0  0  0  0  0  0  0
    7.0372   -4.0670    0.0000 C   0  0  0  0  0  0  0  0  0  0  0  0
    6.2167   -4.1533    0.0000 C   0  0  0  0  0  0  0  0  0  0  0  0
    7.5222   -4.7345    0.0000 C   0  0  0  0  0  0  0  0  0  0  0  0
    5.8812   -4.9070    0.0000 C   0  0  0  0  0  0  0  0  0  0  0  0
    3.7553   -4.4120    0.0000 C   0  0  0  0  0  0  0  0  0  0  0  0
    7.1866   -5.4882    0.0000 C   0  0  0  0  0  0  0  0  0  0  0  0
    4.5758   -4.3257    0.0000 N   0  0  0  0  0  0  0  0  0  0  0  0
    2.4454   -3.7445    0.0000 N   0  0  0  0  0  0  0  0  0  0  0  0
    3.9047   -5.8331    0.0000 O   0  0  0  0  0  0  0  0  0  0  0  0
    7.3728   -3.3134    0.0000 O   0  0  0  0  0  0  0  0  0  0  0  0
    5.7318   -3.4858    0.0000 O   0  0  0  0  0  0  0  0  0  0  0  0
    8.3426   -4.6482    0.0000 O   0  0  0  0  0  0  0  0  0  0  0  0
    3.4197   -5.1657    0.0000 O   0  0  0  0  0  0  0  0  0  0  0  0
    6.3661   -5.5744    0.0000 O   0  0  0  0  0  0  0  0  0  0  0  0
    7.6715   -6.1556    0.0000 S   0  0  0  0  0  0  0  0  0  0  0  0
  5  1  1  0
  6  5  1  0
  9  2  1  1
 10  6  1  6
 10  7  1  0
 10  8  1  0
 11  7  1  0
 12  9  1  0
 14 13  1  0
 15 13  1  0
 16 12  1  0
 16 14  1  0
 11 17  1  1
 18 15  1  0
 12 19  1  1
 19 17  2  3
 20  3  1  0
 20  8  1  0
 20 11  1  0
  9 21  1  0
 13 22  1  6
 14 23  1  6
 15 24  1  1
 17 25  1  0
 16 26  1  6
 26 18  1  0
 27  4  1  0
 18 27  1  1
M  END
>  <ALOGPS_LOGP>  (133) 
0.34

>  <ALOGPS_LOGS>  (133) 
-2.13

>  <ALOGPS_SOLUBILITY>  (133) 
3.02e+00 g/l

>  <DATABASE_NAME>  (133) 
drugbank

>  <DRUGBANK_ID>  (133) 
DB01627

>  <DRUG_GROUPS>  (133) 
approved; vet_approved

>  <EXACT_MASS>  (133) 
406.213757997

>  <FORMULA>  (133) 
C18H34N2O6S

>  <GENERIC_NAME>  (133) 
Lincomycin

>  <ID>  (133) 


>  <INCHI_IDENTIFIER>  (133) 
InChI=1S/C18H34N2O6S/c1-5-6-10-7-11(20(3)8-10)17(25)19-12(9(2)21)16-14(23)13(22)15(24)18(26-16)27-4/h9-16,18,21-24H,5-8H2,1-4H3,(H,19,25)/t9-,10-,11+,12-,13+,14-,15-,16-,18-/m1/s1

>  <INCHI_KEY>  (133) 
OJMMVQQUTAEWLP-KIDUDLJLSA-N

>  <INTERNATIONAL_BRANDS>  (133) 
Lincobect; Lincorex

>  <JCHEM_ACCEPTOR_COUNT>  (133) 
8

>  <JCHEM_ATOM_COUNT>  (133) 
61

>  <JCHEM_AVERAGE_POLARIZABILITY>  (133) 
43.91337125191416

>  <JCHEM_BIOAVAILABILITY>  (133) 
1

>  <JCHEM_DONOR_COUNT>  (133) 
5

>  <JCHEM_FORMAL_CHARGE>  (133) 
0

>  <JCHEM_GHOSE_FILTER>  (133) 
0

>  <JCHEM_IUPAC>  (133) 
(2S,4R)-N-[(1R,2R)-2-hydroxy-1-[(2R,3R,4S,5R,6R)-3,4,5-trihydroxy-6-(methylsulfanyl)oxan-2-yl]propyl]-1-methyl-4-propylpyrrolidine-2-carboximidic acid

>  <JCHEM_LOGP>  (133) 
-2.1780021475959193

>  <JCHEM_MDDR_LIKE_RULE>  (133) 
0

>  <JCHEM_NUMBER_OF_RINGS>  (133) 
2

>  <JCHEM_PHYSIOLOGICAL_CHARGE>  (133) 
1

>  <JCHEM_PKA>  (133) 
12.495573950929973

>  <JCHEM_PKA_STRONGEST_ACIDIC>  (133) 
3.2357848279129824

>  <JCHEM_PKA_STRONGEST_BASIC>  (133) 
8.411435449256718

>  <JCHEM_POLAR_SURFACE_AREA>  (133) 
125.98000000000002

>  <JCHEM_REFRACTIVITY>  (133) 
103.18799999999999

>  <JCHEM_ROTATABLE_BOND_COUNT>  (133) 
7

>  <JCHEM_RULE_OF_FIVE>  (133) 
1

>  <JCHEM_TRADITIONAL_IUPAC>  (133) 
lincomycin

>  <JCHEM_VEBER_RULE>  (133) 
0

>  <MOLECULAR_WEIGHT>  (133) 
406.54

>  <PRODUCTS>  (133) 
Lincocin; Lincomycin

>  <SALTS>  (133) 
Lincomycin hydrochloride; Lincomycin hydrochloride monohydrate

>  <SECONDARY_ACCESSION_NUMBERS>  (133) 
nan

>  <SMILES>  (133) 
[H][C@](C)(O)[C@@]([H])(N=C(O)[C@]1([H])C[C@@]([H])(CCC)CN1C)[C@@]1([H])O[C@]([H])(SC)[C@]([H])(O)[C@@]([H])(O)[C@@]1([H])O

>  <SYNONYMS>  (133) 
Cillimycin; LCM; Lincomicina; Lincomycin; Lincomycine; Lincomycinum

>  <ECFP_FP>  (133) 
<rdkit.DataStructs.cDataStructs.ExplicitBitVect object at 0xa266b3440>

>  <pki_G>  (133) 
5.688635

>  <pki_D>  (133) 
5.885676

>  <pki_B>  (133) 
5.452466

>  <pki_A>  (133) 
5.301853

>  <SelB>  (133) 
0.236169

>  <SelA>  (133) 
0.386781

>  <SelD>  (133) 
-0.197042

>  <AvgABSel>  (133) 
0.311475

>  <MACCS_FP>  (133) 
[0. 0. 0. 0. 0. 0. 0. 0. 0. 0. 0. 0. 0. 0. 0. 0. 0. 0. 0. 0. 0. 0. 0. 0.
 0. 0. 0. 0. 0. 0. 0. 0. 0. 0. 0. 0. 0. 0. 0. 0. 0. 0. 0. 0. 0. 0. 0. 0.
 0. 0. 0. 0. 0. 1. 1. 0. 0. 1. 0. 0. 0. 0. 0. 0. 1. 0. 0. 0. 0. 0. 0. 0.
 1. 0. 0. 1. 0. 0. 1. 1. 0. 1. 0. 1. 0. 1. 1. 0. 1. 1. 1. 1. 1. 1. 0. 1.
 1. 1. 1. 0. 1. 0. 0. 0. 0. 0. 0. 0. 1. 0. 1. 1. 0. 0. 1. 1. 1. 1. 1. 1.
 1. 1. 1. 0. 0. 0. 0. 1. 0. 1. 0. 1. 0. 0. 0. 0. 0. 1. 0. 1. 1. 1. 1. 1.
 0. 0. 1. 1. 1. 1. 1. 0. 1. 1. 0. 1. 1. 1. 1. 1. 1. 1. 0. 1. 1. 1. 0.]

>  <MACCS_pki_G>  (133) 
5.912642

>  <MACCS_pki_D>  (133) 
5.771682

>  <MACCS_pki_B>  (133) 
5.657878

>  <MACCS_pki_A>  (133) 
5.782393

>  <MACCS_SelB>  (133) 
0.254764

>  <MACCS_SelA>  (133) 
0.130249

>  <MACCS_SelD>  (133) 
0.14096

>  <MACCSAvgABSel>  (133) 
0.192506

>  <Pharm2D_FP>  (133) 
[0. 0. 0. ... 0. 0. 0.]

>  <Pharm2D_pki_G>  (133) 
6.344363

>  <Pharm2D_pki_D>  (133) 
5.810667

>  <Pharm2D_pki_B>  (133) 
5.480336

>  <Pharm2D_pki_A>  (133) 
4.881721

>  <Pharm2D_SelB>  (133) 
0.864027

>  <Pharm2D_SelA>  (133) 
1.462642

>  <Pharm2D_SelD>  (133) 
0.533696

>  <Pharm2DAvgABSel>  (133) 
1.163335

>  <QED>  (133) 
0.295075

$$$$
DB00955
     RDKit          2D

 33 35  0  0  0  0  0  0  0  0999 V2000
   -0.1965    0.0970    0.0000 C   0  0  0  0  0  0  0  0  0  0  0  0
    0.5169    1.3347    0.0000 C   0  0  0  0  0  0  0  0  0  0  0  0
    0.5169    0.5144    0.0000 C   0  0  0  0  0  0  0  0  0  0  0  0
   -1.3176   -1.8589    0.0000 C   0  0  0  0  0  0  0  0  0  0  0  0
   -0.9052   -1.1454    0.0000 C   0  0  0  0  0  0  0  0  0  0  0  0
   -2.1427   -1.8589    0.0000 C   0  0  0  0  0  0  0  0  0  0  0  0
   -0.1965   -0.7231    0.0000 O   0  0  0  0  0  0  0  0  0  0  0  0
    1.2352    1.7472    0.0000 O   0  0  0  0  0  0  0  0  0  0  0  0
    1.9485    1.3347    0.0000 C   0  0  0  0  0  0  0  0  0  0  0  0
   -2.5552   -1.1454    0.0000 C   0  0  0  0  0  0  0  0  0  0  0  0
    1.9485    0.5144    0.0000 O   0  0  0  0  0  0  0  0  0  0  0  0
   -0.9099    0.5144    0.0000 C   0  0  0  0  0  0  0  0  0  0  0  0
   -0.1965    1.7520    0.0000 C   0  0  0  0  0  0  0  0  0  0  0  0
   -1.3176   -0.4319    0.0000 O   0  0  0  0  0  0  0  0  0  0  0  0
   -0.9099    1.3347    0.0000 C   0  0  0  0  0  0  0  0  0  0  0  0
    2.6620    0.0970    0.0000 C   0  0  0  0  0  0  0  0  0  0  0  0
   -2.1427   -0.4319    0.0000 C   0  0  0  0  0  0  0  0  0  0  0  0
    3.3755    0.5144    0.0000 C   0  0  0  0  0  0  0  0  0  0  0  0
    2.6620    1.7520    0.0000 C   0  0  0  0  0  0  0  0  0  0  0  0
    3.3755    1.3347    0.0000 C   0  0  0  0  0  0  0  0  0  0  0  0
   -2.5505   -2.5722    0.0000 N   0  0  0  0  0  0  0  0  0  0  0  0
   -0.9052   -2.5722    0.0000 O   0  0  0  0  0  0  0  0  0  0  0  0
    1.2352    0.1019    0.0000 O   0  0  0  0  0  0  0  0  0  0  0  0
   -1.6233    0.1019    0.0000 N   0  0  0  0  0  0  0  0  0  0  0  0
   -0.1965    2.5722    0.0000 N   0  0  0  0  0  0  0  0  0  0  0  0
   -3.2785   -1.5530    0.0000 O   0  0  0  0  0  0  0  0  0  0  0  0
    2.6620    2.5722    0.0000 N   0  0  0  0  0  0  0  0  0  0  0  0
    1.9438   -1.1405    0.0000 N   0  0  0  0  0  0  0  0  0  0  0  0
   -3.2785   -0.7328    0.0000 C   0  0  0  0  0  0  0  0  0  0  0  0
    2.6620   -0.7231    0.0000 C   0  0  0  0  0  0  0  0  0  0  0  0
   -2.3368    0.5144    0.0000 C   0  0  0  0  0  0  0  0  0  0  0  0
   -3.3755   -2.5722    0.0000 C   0  0  0  0  0  0  0  0  0  0  0  0
   -3.0503    0.1019    0.0000 C   0  0  0  0  0  0  0  0  0  0  0  0
  2  3  1  0
  3  1  1  0
  4  5  1  0
  5  7  1  6
  6  4  1  0
  1  7  1  1
  2  8  1  1
  9  8  1  6
 10 17  1  0
 11  9  1  0
 12  1  1  0
 13  2  1  0
 14  5  1  0
 15 12  1  0
 16 11  1  0
 17 14  1  0
 18 16  2  0
 19  9  1  0
 20 19  1  0
  6 21  1  1
  4 22  1  6
  3 23  1  6
 12 24  1  6
 13 25  1  6
 10 26  1  0
 19 27  1  6
 28 30  1  0
 10 29  1  6
 30 16  1  0
 31 24  1  0
 32 21  1  0
 33 31  1  0
 13 15  1  0
 10  6  1  0
 20 18  1  0
M  END
>  <ALOGPS_LOGP>  (134) 
-1.42

>  <ALOGPS_LOGS>  (134) 
-1.71

>  <ALOGPS_SOLUBILITY>  (134) 
9.20e+00 g/l

>  <DATABASE_NAME>  (134) 
drugbank

>  <DRUGBANK_ID>  (134) 
DB00955

>  <DRUG_GROUPS>  (134) 
approved; investigational

>  <EXACT_MASS>  (134) 
475.30059868

>  <FORMULA>  (134) 
C21H41N5O7

>  <GENERIC_NAME>  (134) 
Netilmicin

>  <ID>  (134) 


>  <INCHI_IDENTIFIER>  (134) 
InChI=1S/C21H41N5O7/c1-4-26-13-7-12(24)16(32-19-11(23)6-5-10(8-22)31-19)14(27)17(13)33-20-15(28)18(25-3)21(2,29)9-30-20/h5,11-20,25-29H,4,6-9,22-24H2,1-3H3/t11-,12+,13-,14+,15-,16-,17+,18-,19-,20-,21+/m1/s1

>  <INCHI_KEY>  (134) 
CIDUJQMULVCIBT-MQDUPKMGSA-N

>  <INTERNATIONAL_BRANDS>  (134) 
nan

>  <JCHEM_ACCEPTOR_COUNT>  (134) 
12

>  <JCHEM_ATOM_COUNT>  (134) 
74

>  <JCHEM_AVERAGE_POLARIZABILITY>  (134) 
50.758546209094916

>  <JCHEM_BIOAVAILABILITY>  (134) 
0

>  <JCHEM_DONOR_COUNT>  (134) 
8

>  <JCHEM_FORMAL_CHARGE>  (134) 
0

>  <JCHEM_GHOSE_FILTER>  (134) 
0

>  <JCHEM_IUPAC>  (134) 
(2R,3R,4R,5R)-2-{[(1S,2S,3R,4S,6R)-4-amino-3-{[(2S,3R)-3-amino-6-(aminomethyl)-3,4-dihydro-2H-pyran-2-yl]oxy}-6-(ethylamino)-2-hydroxycyclohexyl]oxy}-5-methyl-4-(methylamino)oxane-3,5-diol

>  <JCHEM_LOGP>  (134) 
-3.529179202333335

>  <JCHEM_MDDR_LIKE_RULE>  (134) 
1

>  <JCHEM_NUMBER_OF_RINGS>  (134) 
3

>  <JCHEM_PHYSIOLOGICAL_CHARGE>  (134) 
5

>  <JCHEM_PKA>  (134) 
13.158974448550211

>  <JCHEM_PKA_STRONGEST_ACIDIC>  (134) 
12.548225162153976

>  <JCHEM_PKA_STRONGEST_BASIC>  (134) 
9.798353036493804

>  <JCHEM_POLAR_SURFACE_AREA>  (134) 
199.73000000000002

>  <JCHEM_REFRACTIVITY>  (134) 
119.84389999999999

>  <JCHEM_ROTATABLE_BOND_COUNT>  (134) 
8

>  <JCHEM_RULE_OF_FIVE>  (134) 
0

>  <JCHEM_TRADITIONAL_IUPAC>  (134) 
1-N-ethylsisomicin

>  <JCHEM_VEBER_RULE>  (134) 
0

>  <MOLECULAR_WEIGHT>  (134) 
475.587

>  <PRODUCTS>  (134) 
Netromycin Inj 100mg/ml; Netromycin Inj 50mg/ml

>  <SALTS>  (134) 
Netilmicin sulfate

>  <SECONDARY_ACCESSION_NUMBERS>  (134) 
APRD00232

>  <SMILES>  (134) 
CCN[C@@H]1C[C@H](N)[C@@H](O[C@H]2OC(CN)=CC[C@H]2N)[C@H](O)[C@H]1O[C@H]1OC[C@](C)(O)[C@H](NC)[C@H]1O

>  <SYNONYMS>  (134) 
1-N-Ethylsisomicin; Netilmycin

>  <ECFP_FP>  (134) 
<rdkit.DataStructs.cDataStructs.ExplicitBitVect object at 0xa26647cb0>

>  <pki_G>  (134) 
5.68648

>  <pki_D>  (134) 
6.014801

>  <pki_B>  (134) 
5.498429

>  <pki_A>  (134) 
5.479493

>  <SelB>  (134) 
0.188051

>  <SelA>  (134) 
0.206987

>  <SelD>  (134) 
-0.328321

>  <AvgABSel>  (134) 
0.197519

>  <MACCS_FP>  (134) 
[0. 0. 0. 0. 0. 0. 0. 0. 0. 0. 0. 0. 0. 0. 0. 0. 0. 0. 0. 0. 0. 0. 0. 0.
 0. 0. 0. 0. 0. 0. 0. 0. 0. 0. 0. 0. 0. 0. 0. 0. 0. 0. 0. 0. 0. 0. 0. 0.
 0. 0. 0. 0. 0. 1. 1. 0. 0. 1. 0. 0. 0. 0. 0. 0. 0. 0. 1. 0. 0. 0. 0. 0.
 1. 0. 0. 0. 1. 0. 0. 0. 1. 0. 1. 0. 1. 0. 0. 0. 0. 1. 1. 1. 0. 1. 0. 1.
 0. 1. 1. 1. 1. 0. 0. 0. 1. 0. 0. 0. 1. 1. 0. 1. 1. 0. 1. 1. 0. 0. 0. 0.
 1. 0. 0. 1. 0. 0. 1. 1. 0. 1. 0. 1. 1. 1. 0. 0. 0. 1. 1. 1. 1. 1. 1. 1.
 0. 1. 1. 0. 0. 1. 1. 1. 1. 1. 0. 1. 1. 1. 1. 1. 1. 1. 0. 1. 1. 1. 0.]

>  <MACCS_pki_G>  (134) 
6.178382

>  <MACCS_pki_D>  (134) 
5.858533

>  <MACCS_pki_B>  (134) 
6.113452

>  <MACCS_pki_A>  (134) 
6.11225

>  <MACCS_SelB>  (134) 
0.06493

>  <MACCS_SelA>  (134) 
0.066131

>  <MACCS_SelD>  (134) 
0.319849

>  <MACCSAvgABSel>  (134) 
0.06553

>  <Pharm2D_FP>  (134) 
[0. 0. 0. ... 0. 0. 0.]

>  <Pharm2D_pki_G>  (134) 
6.463195

>  <Pharm2D_pki_D>  (134) 
5.906264

>  <Pharm2D_pki_B>  (134) 
5.694556

>  <Pharm2D_pki_A>  (134) 
5.128721

>  <Pharm2D_SelB>  (134) 
0.768639

>  <Pharm2D_SelA>  (134) 
1.334475

>  <Pharm2D_SelD>  (134) 
0.556932

>  <Pharm2DAvgABSel>  (134) 
1.051557

>  <QED>  (134) 
0.175035

$$$$
DB12604
     RDKit          2D

 31 33  0  0  1  0  0  0  0  0999 V2000
   -1.7111   -3.2502    0.0000 C   0  0  0  0  0  0  0  0  0  0  0  0
   -0.0000   -4.1250    0.0000 C   0  0  0  0  0  0  0  0  0  0  0  0
   -2.8579   -0.0000    0.0000 C   0  0  0  0  0  0  0  0  0  0  0  0
   -2.8579    0.8250    0.0000 C   0  0  0  0  0  0  0  0  0  0  0  0
    1.4289    0.8250    0.0000 C   0  0  0  0  0  0  0  0  0  0  0  0
   -2.1434   -1.2375    0.0000 C   0  0  0  0  0  0  0  0  0  0  0  0
   -1.4289   -1.6500    0.0000 C   0  0  0  0  0  0  0  0  0  0  0  0
   -2.1434   -0.4125    0.0000 C   0  0  0  0  0  0  0  0  0  0  0  0
   -2.1434    1.2375    0.0000 C   0  0  0  0  0  0  0  0  0  0  0  0
    0.7145    1.2375    0.0000 C   0  0  0  0  0  0  0  0  0  0  0  0
    1.4289   -0.0000    0.0000 C   0  0  0  0  0  0  0  0  0  0  0  0
    0.0000   -0.0000    0.0000 C   0  0  0  0  0  0  0  0  0  0  0  0
   -0.0000   -2.4750    0.0000 C   0  0  0  0  0  0  0  0  0  0  0  0
    0.0000    0.8250    0.0000 C   0  0  0  0  0  0  0  0  0  0  0  0
    0.7145   -0.4125    0.0000 C   0  0  0  0  0  0  0  0  0  0  0  0
   -0.7145   -2.8875    0.0000 C   0  0  0  0  0  0  0  0  0  0  0  0
   -1.4289    0.8250    0.0000 C   0  0  0  0  0  0  0  0  0  0  0  0
    0.0000   -1.6500    0.0000 C   0  0  0  0  0  0  0  0  0  0  0  0
   -1.4289   -2.4750    0.0000 C   0  0  0  0  0  0  0  0  0  0  0  0
   -2.8579   -1.6500    0.0000 N   0  0  0  0  0  0  0  0  0  0  0  0
   -2.1434    2.0625    0.0000 N   0  0  0  0  0  0  0  0  0  0  0  0
    0.7145    2.0625    0.0000 N   0  0  0  0  0  0  0  0  0  0  0  0
    2.1434   -0.4125    0.0000 N   0  0  0  0  0  0  0  0  0  0  0  0
   -0.7145   -3.7125    0.0000 N   0  0  0  0  0  0  0  0  0  0  0  0
   -0.7145   -0.4125    0.0000 O   0  0  0  0  0  0  0  0  0  0  0  0
    0.7145   -2.8875    0.0000 O   0  0  0  0  0  0  0  0  0  0  0  0
   -2.2414   -2.3317    0.0000 O   0  0  0  0  0  0  0  0  0  0  0  0
   -0.7145   -1.2375    0.0000 O   0  0  0  0  0  0  0  0  0  0  0  0
   -1.4289   -0.0000    0.0000 O   0  0  0  0  0  0  0  0  0  0  0  0
   -0.7145    1.2375    0.0000 O   0  0  0  0  0  0  0  0  0  0  0  0
    0.7145   -1.2375    0.0000 O   0  0  0  0  0  0  0  0  0  0  0  0
  4  3  1  0
  8  3  2  0
  8  6  1  0
  9  4  1  0
 10  5  1  0
 11  5  1  0
 14 10  1  0
 14 12  1  0
 15 11  1  0
 15 12  1  0
 16 13  1  0
 17  9  1  0
 18 13  1  0
 19  1  1  6
 19  7  1  0
 19 16  1  0
 20  6  1  0
  9 21  1  1
 10 22  1  1
 11 23  1  1
 24  2  1  0
 16 24  1  1
 12 25  1  1
 13 26  1  6
 19 27  1  0
 28  7  1  0
 28 18  1  0
 29  8  1  0
 29 17  1  0
 14 30  1  6
 17 30  1  1
 15 31  1  6
 18 31  1  6
M  END
>  <ALOGPS_LOGP>  (135) 
-2.03

>  <ALOGPS_LOGS>  (135) 
-1.46

>  <ALOGPS_SOLUBILITY>  (135) 
1.56e+01 g/l

>  <DATABASE_NAME>  (135) 
drugbank

>  <DRUGBANK_ID>  (135) 
DB12604

>  <DRUG_GROUPS>  (135) 
investigational

>  <EXACT_MASS>  (135) 
447.269298563

>  <FORMULA>  (135) 
C19H37N5O7

>  <GENERIC_NAME>  (135) 
Sisomicin

>  <ID>  (135) 


>  <INCHI_IDENTIFIER>  (135) 
InChI=1S/C19H37N5O7/c1-19(27)7-28-18(13(26)16(19)24-2)31-15-11(23)5-10(22)14(12(15)25)30-17-9(21)4-3-8(6-20)29-17/h3,9-18,24-27H,4-7,20-23H2,1-2H3/t9-,10+,11-,12+,13-,14-,15+,16-,17-,18-,19+/m1/s1

>  <INCHI_KEY>  (135) 
URWAJWIAIPFPJE-YFMIWBNJSA-N

>  <INTERNATIONAL_BRANDS>  (135) 
nan

>  <JCHEM_ACCEPTOR_COUNT>  (135) 
12

>  <JCHEM_ATOM_COUNT>  (135) 
nan

>  <JCHEM_AVERAGE_POLARIZABILITY>  (135) 
46.44890287646355

>  <JCHEM_BIOAVAILABILITY>  (135) 
0

>  <JCHEM_DONOR_COUNT>  (135) 
8

>  <JCHEM_FORMAL_CHARGE>  (135) 
0

>  <JCHEM_GHOSE_FILTER>  (135) 
0

>  <JCHEM_IUPAC>  (135) 
(2R,3R,4R,5R)-2-{[(1S,2S,3R,4S,6R)-4,6-diamino-3-{[(2S,3R)-3-amino-6-(aminomethyl)-3,4-dihydro-2H-pyran-2-yl]oxy}-2-hydroxycyclohexyl]oxy}-5-methyl-4-(methylamino)oxane-3,5-diol

>  <JCHEM_LOGP>  (135) 
-4.318567550666666

>  <JCHEM_MDDR_LIKE_RULE>  (135) 
1

>  <JCHEM_NUMBER_OF_RINGS>  (135) 
3

>  <JCHEM_PHYSIOLOGICAL_CHARGE>  (135) 
5

>  <JCHEM_PKA>  (135) 
13.159224029302635

>  <JCHEM_PKA_STRONGEST_ACIDIC>  (135) 
12.548462167739117

>  <JCHEM_PKA_STRONGEST_BASIC>  (135) 
9.883313982205006

>  <JCHEM_POLAR_SURFACE_AREA>  (135) 
213.71999999999994

>  <JCHEM_REFRACTIVITY>  (135) 
110.32069999999999

>  <JCHEM_ROTATABLE_BOND_COUNT>  (135) 
6

>  <JCHEM_RULE_OF_FIVE>  (135) 
0

>  <JCHEM_TRADITIONAL_IUPAC>  (135) 
SISO

>  <JCHEM_VEBER_RULE>  (135) 
0

>  <MOLECULAR_WEIGHT>  (135) 
447.5264

>  <PRODUCTS>  (135) 
nan

>  <SALTS>  (135) 
nan

>  <SECONDARY_ACCESSION_NUMBERS>  (135) 
nan

>  <SMILES>  (135) 
[H][C@@]1(N)CC=C(CN)O[C@]1([H])O[C@]1([H])[C@@]([H])(N)C[C@@]([H])(N)[C@]([H])(O[C@@]2([H])OC[C@](C)(O)[C@]([H])(NC)[C@@]2([H])O)[C@@]1([H])O

>  <SYNONYMS>  (135) 
nan

>  <ECFP_FP>  (135) 
<rdkit.DataStructs.cDataStructs.ExplicitBitVect object at 0xa26c456c0>

>  <pki_G>  (135) 
5.68648

>  <pki_D>  (135) 
6.014801

>  <pki_B>  (135) 
5.485049

>  <pki_A>  (135) 
5.493493

>  <SelB>  (135) 
0.201431

>  <SelA>  (135) 
0.192987

>  <SelD>  (135) 
-0.328321

>  <AvgABSel>  (135) 
0.197209

>  <MACCS_FP>  (135) 
[0. 0. 0. 0. 0. 0. 0. 0. 0. 0. 0. 0. 0. 0. 0. 0. 0. 0. 0. 0. 0. 0. 0. 0.
 0. 0. 0. 0. 0. 0. 0. 0. 0. 0. 0. 0. 0. 0. 0. 0. 0. 0. 0. 0. 0. 0. 0. 0.
 0. 0. 0. 0. 0. 1. 1. 0. 0. 1. 0. 0. 0. 0. 0. 0. 0. 0. 1. 0. 0. 0. 0. 0.
 1. 0. 0. 0. 1. 0. 0. 0. 1. 0. 1. 0. 1. 0. 0. 0. 0. 1. 1. 1. 0. 1. 0. 1.
 0. 1. 1. 1. 1. 0. 0. 0. 1. 0. 0. 0. 1. 1. 0. 1. 1. 0. 0. 1. 0. 0. 0. 0.
 1. 0. 0. 1. 0. 0. 1. 1. 0. 1. 0. 1. 1. 1. 0. 0. 0. 1. 1. 1. 1. 0. 1. 1.
 0. 1. 1. 0. 0. 1. 1. 1. 1. 1. 0. 1. 1. 1. 1. 1. 1. 1. 0. 1. 1. 1. 0.]

>  <MACCS_pki_G>  (135) 
6.137696

>  <MACCS_pki_D>  (135) 
5.858533

>  <MACCS_pki_B>  (135) 
6.113452

>  <MACCS_pki_A>  (135) 
6.041834

>  <MACCS_SelB>  (135) 
0.024244

>  <MACCS_SelA>  (135) 
0.095862

>  <MACCS_SelD>  (135) 
0.279163

>  <MACCSAvgABSel>  (135) 
0.060053

>  <Pharm2D_FP>  (135) 
[0. 0. 0. ... 0. 0. 0.]

>  <Pharm2D_pki_G>  (135) 
6.463195

>  <Pharm2D_pki_D>  (135) 
5.906264

>  <Pharm2D_pki_B>  (135) 
5.694556

>  <Pharm2D_pki_A>  (135) 
5.128721

>  <Pharm2D_SelB>  (135) 
0.768639

>  <Pharm2D_SelA>  (135) 
1.334475

>  <Pharm2D_SelD>  (135) 
0.556932

>  <Pharm2DAvgABSel>  (135) 
1.051557

>  <QED>  (135) 
0.196402

$$$$
DB03948
     RDKit          2D

 23 25  0  0  1  0  0  0  0  0999 V2000
   -0.5683   -1.4940    0.0000 C   0  0  0  0  0  0  0  0  0  0  0  0
    3.3523    1.1104    0.0000 C   0  0  0  0  0  0  0  0  0  0  0  0
    0.6538    1.5229    0.0000 C   0  0  0  0  0  0  0  0  0  0  0  0
    0.0992   -1.0091    0.0000 C   0  0  0  0  0  0  0  0  0  0  0  0
    1.9233    1.9354    0.0000 C   0  0  0  0  0  0  0  0  0  0  0  0
    0.8838   -1.2640    0.0000 C   0  0  0  0  0  0  0  0  0  0  0  0
    1.3687   -0.5966    0.0000 C   0  0  0  0  0  0  0  0  0  0  0  0
    2.6378    2.3479    0.0000 C   0  0  0  0  0  0  0  0  0  0  0  0
    1.9233    1.1104    0.0000 C   0  0  0  0  0  0  0  0  0  0  0  0
    0.8838    0.0709    0.0000 C   0  0  0  0  0  0  0  0  0  0  0  0
    2.6378    3.1729    0.0000 Cl  0  0  0  0  0  0  0  0  0  0  0  0
    3.3523    1.9354    0.0000 N   0  0  0  0  0  0  0  0  0  0  0  0
    2.6378    0.6979    0.0000 N   0  0  0  0  0  0  0  0  0  0  0  0
    1.1387    2.1904    0.0000 N   0  0  0  0  0  0  0  0  0  0  0  0
    1.1387    0.8555    0.0000 N   0  0  0  0  0  0  0  0  0  0  0  0
    1.1387   -2.0486    0.0000 O   0  0  0  0  0  0  0  0  0  0  0  0
    2.1937   -0.5966    0.0000 O   0  0  0  0  0  0  0  0  0  0  0  0
   -2.6568   -2.1283    0.0000 O   0  0  0  0  0  0  0  0  0  0  0  0
   -2.4743   -0.9759    0.0000 O   0  0  0  0  0  0  0  0  0  0  0  0
   -1.5045   -2.3108    0.0000 O   0  0  0  0  0  0  0  0  0  0  0  0
   -1.3220   -1.1584    0.0000 O   0  0  0  0  0  0  0  0  0  0  0  0
    0.0992   -0.1841    0.0000 O   0  0  0  0  0  0  0  0  0  0  0  0
   -1.9894   -1.6433    0.0000 P   0  0  0  0  0  0  0  0  0  0  0  0
  4  1  1  1
  6  4  1  0
  7  6  1  0
  8  5  2  0
  9  5  1  0
 10  7  1  0
 11  8  1  0
 12  2  2  0
 12  8  1  0
 13  2  1  0
 13  9  2  0
 14  3  2  0
 14  5  1  0
 15  3  1  0
 15  9  1  0
 10 15  1  1
  6 16  1  6
  7 17  1  6
 21  1  1  0
 22  4  1  0
 22 10  1  0
 23 18  1  0
 23 19  1  0
 23 20  2  0
 23 21  1  0
M  CHG  1  12   1
M  END
>  <ALOGPS_LOGP>  (136) 
-0.89

>  <ALOGPS_LOGS>  (136) 
-2.33

>  <ALOGPS_SOLUBILITY>  (136) 
1.87e+00 g/l

>  <DATABASE_NAME>  (136) 
drugbank

>  <DRUGBANK_ID>  (136) 
DB03948

>  <DRUG_GROUPS>  (136) 
experimental

>  <EXACT_MASS>  (136) 
367.021038009

>  <FORMULA>  (136) 
C10H13ClN4O7P

>  <GENERIC_NAME>  (136) 
6-Chloropurine Riboside, 5'-Monophosphate

>  <ID>  (136) 


>  <INCHI_IDENTIFIER>  (136) 
InChI=1S/C10H12ClN4O7P/c11-8-5-9(13-2-12-8)15(3-14-5)10-7(17)6(16)4(22-10)1-21-23(18,19)20/h2-4,6-7,10,16-17H,1H2,(H2,18,19,20)/p+1/t4-,6-,7-,10-/m1/s1

>  <INCHI_KEY>  (136) 
ALOBOMYIOYNCBS-KQYNXXCUSA-O

>  <INTERNATIONAL_BRANDS>  (136) 
nan

>  <JCHEM_ACCEPTOR_COUNT>  (136) 
8

>  <JCHEM_ATOM_COUNT>  (136) 
nan

>  <JCHEM_AVERAGE_POLARIZABILITY>  (136) 
31.042552347764854

>  <JCHEM_BIOAVAILABILITY>  (136) 
1

>  <JCHEM_DONOR_COUNT>  (136) 
5

>  <JCHEM_FORMAL_CHARGE>  (136) 
1

>  <JCHEM_GHOSE_FILTER>  (136) 
0

>  <JCHEM_IUPAC>  (136) 
6-chloro-9-[(2R,3R,4S,5R)-3,4-dihydroxy-5-[(phosphonooxy)methyl]oxolan-2-yl]-9H-purin-1-ium

>  <JCHEM_LOGP>  (136) 
-2.297005637175729

>  <JCHEM_MDDR_LIKE_RULE>  (136) 
0

>  <JCHEM_NUMBER_OF_RINGS>  (136) 
3

>  <JCHEM_PHYSIOLOGICAL_CHARGE>  (136) 
-2

>  <JCHEM_PKA>  (136) 
6.250549196001904

>  <JCHEM_PKA_STRONGEST_ACIDIC>  (136) 
1.1614309994016723

>  <JCHEM_PKA_STRONGEST_BASIC>  (136) 
2.0925002878991914

>  <JCHEM_POLAR_SURFACE_AREA>  (136) 
161.29999999999998

>  <JCHEM_REFRACTIVITY>  (136) 
74.494

>  <JCHEM_ROTATABLE_BOND_COUNT>  (136) 
4

>  <JCHEM_RULE_OF_FIVE>  (136) 
1

>  <JCHEM_TRADITIONAL_IUPAC>  (136) 
6-chloro-9-[(2R,3R,4S,5R)-3,4-dihydroxy-5-[(phosphonooxy)methyl]oxolan-2-yl]purin-1-ium

>  <JCHEM_VEBER_RULE>  (136) 
0

>  <MOLECULAR_WEIGHT>  (136) 
367.66

>  <PRODUCTS>  (136) 
nan

>  <SALTS>  (136) 
nan

>  <SECONDARY_ACCESSION_NUMBERS>  (136) 
EXPT01004

>  <SMILES>  (136) 
[H][C@]1(COP(O)(O)=O)O[C@@]([H])(N2C=NC3=C(Cl)[NH+]=CN=C23)[C@]([H])(O)[C@]1([H])O

>  <SYNONYMS>  (136) 
nan

>  <ECFP_FP>  (136) 
<rdkit.DataStructs.cDataStructs.ExplicitBitVect object at 0xa2692a440>

>  <pki_G>  (136) 
5.683212

>  <pki_D>  (136) 
5.793579

>  <pki_B>  (136) 
5.441645

>  <pki_A>  (136) 
5.201873

>  <SelB>  (136) 
0.241567

>  <SelA>  (136) 
0.481339

>  <SelD>  (136) 
-0.110368

>  <AvgABSel>  (136) 
0.361453

>  <MACCS_FP>  (136) 
[0. 0. 0. 0. 0. 0. 0. 0. 0. 0. 0. 0. 0. 0. 0. 0. 0. 0. 0. 0. 0. 0. 0. 0.
 0. 0. 0. 0. 0. 1. 0. 0. 0. 0. 0. 0. 0. 0. 1. 0. 0. 0. 0. 1. 0. 0. 0. 0.
 1. 1. 0. 0. 0. 0. 1. 0. 0. 1. 0. 0. 0. 0. 1. 0. 0. 1. 0. 0. 0. 1. 0. 0.
 1. 0. 0. 1. 0. 1. 0. 1. 1. 0. 0. 1. 0. 1. 0. 1. 0. 1. 1. 1. 1. 0. 0. 1.
 1. 1. 1. 0. 0. 1. 1. 1. 0. 1. 1. 1. 0. 1. 1. 0. 1. 0. 0. 0. 0. 1. 0. 0.
 1. 1. 1. 0. 1. 1. 1. 1. 0. 0. 1. 1. 1. 1. 1. 0. 0. 1. 0. 1. 1. 0. 1. 1.
 0. 0. 1. 0. 1. 0. 1. 1. 1. 1. 0. 1. 1. 1. 1. 1. 0. 1. 1. 1. 1. 1. 0.]

>  <MACCS_pki_G>  (136) 
6.395581

>  <MACCS_pki_D>  (136) 
5.876568

>  <MACCS_pki_B>  (136) 
5.74978

>  <MACCS_pki_A>  (136) 
5.600444

>  <MACCS_SelB>  (136) 
0.645801

>  <MACCS_SelA>  (136) 
0.795137

>  <MACCS_SelD>  (136) 
0.519013

>  <MACCSAvgABSel>  (136) 
0.720469

>  <Pharm2D_FP>  (136) 
[0. 0. 0. ... 0. 0. 0.]

>  <Pharm2D_pki_G>  (136) 
5.727495

>  <Pharm2D_pki_D>  (136) 
5.760325

>  <Pharm2D_pki_B>  (136) 
5.537856

>  <Pharm2D_pki_A>  (136) 
5.564886

>  <Pharm2D_SelB>  (136) 
0.189639

>  <Pharm2D_SelA>  (136) 
0.162609

>  <Pharm2D_SelD>  (136) 
-0.03283

>  <Pharm2DAvgABSel>  (136) 
0.176124

>  <QED>  (136) 
0.376924

$$$$
DB03648
     RDKit          2D

 50 51  0  0  1  0  0  0  0  0999 V2000
    5.7158    7.4250    0.0000 C   0  0  0  0  0  0  0  0  0  0  0  0
   10.7171    5.3625    0.0000 C   0  0  0  0  0  0  0  0  0  0  0  0
    5.7158    6.6000    0.0000 C   0  0  0  0  0  0  0  0  0  0  0  0
   10.7171    6.1875    0.0000 C   0  0  0  0  0  0  0  0  0  0  0  0
    6.4302    6.1875    0.0000 C   0  0  0  0  0  0  0  0  0  0  0  0
   10.0026    6.6000    0.0000 C   0  0  0  0  0  0  0  0  0  0  0  0
    3.5724    0.4125    0.0000 C   0  0  0  0  0  0  0  0  0  0  0  0
   12.8605   12.3750    0.0000 C   0  0  0  0  0  0  0  0  0  0  0  0
    4.2868    0.0000    0.0000 C   0  0  0  0  0  0  0  0  0  0  0  0
    3.5724    1.2375    0.0000 C   0  0  0  0  0  0  0  0  0  0  0  0
   12.1460   12.7875    0.0000 C   0  0  0  0  0  0  0  0  0  0  0  0
   12.8605   11.5500    0.0000 C   0  0  0  0  0  0  0  0  0  0  0  0
    7.8592    2.8875    0.0000 C   0  0  0  0  0  0  0  0  0  0  0  0
    8.5737    9.9000    0.0000 C   0  0  0  0  0  0  0  0  0  0  0  0
    8.5737    2.4750    0.0000 C   0  0  0  0  0  0  0  0  0  0  0  0
    7.8592   10.3125    0.0000 C   0  0  0  0  0  0  0  0  0  0  0  0
    6.4302    5.3625    0.0000 C   0  0  0  0  0  0  0  0  0  0  0  0
   10.0026    7.4250    0.0000 C   0  0  0  0  0  0  0  0  0  0  0  0
    5.0013    0.4125    0.0000 C   0  0  0  0  0  0  0  0  0  0  0  0
    4.2868    1.6500    0.0000 C   0  0  0  0  0  0  0  0  0  0  0  0
   11.4315   12.3750    0.0000 C   0  0  0  0  0  0  0  0  0  0  0  0
   12.1460   11.1375    0.0000 C   0  0  0  0  0  0  0  0  0  0  0  0
    7.1447    2.4750    0.0000 C   0  0  0  0  0  0  0  0  0  0  0  0
    9.2881   10.3125    0.0000 C   0  0  0  0  0  0  0  0  0  0  0  0
    9.2881    2.8875    0.0000 C   0  0  0  0  0  0  0  0  0  0  0  0
    7.1447    9.9000    0.0000 C   0  0  0  0  0  0  0  0  0  0  0  0
    7.8592    5.3625    0.0000 C   0  0  0  0  0  0  0  0  0  0  0  0
    8.5737    7.4250    0.0000 C   0  0  0  0  0  0  0  0  0  0  0  0
    7.1447    4.9500    0.0000 C   0  0  0  0  0  0  0  0  0  0  0  0
    9.2881    7.8375    0.0000 C   0  0  0  0  0  0  0  0  0  0  0  0
    5.0013    1.2375    0.0000 C   0  0  0  0  0  0  0  0  0  0  0  0
   11.4315   11.5500    0.0000 C   0  0  0  0  0  0  0  0  0  0  0  0
    6.4302    2.8875    0.0000 C   0  0  0  0  0  0  0  0  0  0  0  0
   10.0026    9.9000    0.0000 C   0  0  0  0  0  0  0  0  0  0  0  0
    7.1447    4.1250    0.0000 C   0  0  0  0  0  0  0  0  0  0  0  0
    9.2881    8.6625    0.0000 C   0  0  0  0  0  0  0  0  0  0  0  0
    5.7158    2.4750    0.0000 C   0  0  0  0  0  0  0  0  0  0  0  0
   10.7171   10.3125    0.0000 C   0  0  0  0  0  0  0  0  0  0  0  0
   10.0026    2.4750    0.0000 N   0  0  0  0  0  0  0  0  0  0  0  0
    6.4302   10.3125    0.0000 N   0  0  0  0  0  0  0  0  0  0  0  0
    7.8592    6.1875    0.0000 N   0  0  0  0  0  0  0  0  0  0  0  0
    8.5737    6.6000    0.0000 N   0  0  0  0  0  0  0  0  0  0  0  0
    5.7158    1.6500    0.0000 N   0  0  0  0  0  0  0  0  0  0  0  0
   10.7171   11.1375    0.0000 N   0  0  0  0  0  0  0  0  0  0  0  0
    6.4302    3.7125    0.0000 N   0  0  0  0  0  0  0  0  0  0  0  0
   10.0026    9.0750    0.0000 N   0  0  0  0  0  0  0  0  0  0  0  0
    7.8592    3.7125    0.0000 O   0  0  0  0  0  0  0  0  0  0  0  0
    8.5737    9.0750    0.0000 O   0  0  0  0  0  0  0  0  0  0  0  0
    5.0013    2.8875    0.0000 O   0  0  0  0  0  0  0  0  0  0  0  0
   11.4315    9.9000    0.0000 O   0  0  0  0  0  0  0  0  0  0  0  0
  3  1  1  0
  4  2  1  0
  5  3  1  0
  6  4  1  0
  9  7  2  0
 10  7  1  0
 11  8  2  0
 12  8  1  0
 15 13  1  0
 16 14  1  0
 17  5  1  0
 18  6  1  0
 19  9  1  0
 20 10  2  0
 21 11  1  0
 22 12  2  0
 23 13  1  0
 24 14  1  0
 25 15  1  0
 26 16  1  0
 29 17  1  1
 29 27  1  0
 30 18  1  1
 30 28  1  0
 31 19  2  0
 31 20  1  0
 32 21  2  0
 32 22  1  0
 33 23  1  1
 34 24  1  1
 29 35  1  0
 30 36  1  0
 37 33  1  0
 38 34  1  0
 39 25  1  0
 40 26  1  0
 41 27  1  0
 42 28  1  0
 42 41  1  0
 43 31  1  0
 43 37  2  3
 44 32  1  0
 44 38  2  3
 33 45  1  0
 45 35  2  3
 34 46  1  0
 46 36  2  3
 35 47  1  0
 36 48  1  0
 49 37  1  0
 50 38  1  0
M  END
>  <ALOGPS_LOGP>  (137) 
3.05

>  <ALOGPS_LOGS>  (137) 
-5.37

>  <ALOGPS_SOLUBILITY>  (137) 
2.98e-03 g/l

>  <DATABASE_NAME>  (137) 
drugbank

>  <DRUGBANK_ID>  (137) 
DB03648

>  <DRUG_GROUPS>  (137) 
experimental

>  <EXACT_MASS>  (137) 
694.489402512

>  <FORMULA>  (137) 
C38H62N8O4

>  <GENERIC_NAME>  (137) 
2-{N'-[2-(5-Amino-1-Phenylcarbamoyl-Pentylcarbamoyl)-Hexyl]-Hydrazinomethyl}-Hexanoic Acid(5-Amino-1-Phenylcarbamoyl-Pentyl)-Amide

>  <ID>  (137) 


>  <INCHI_IDENTIFIER>  (137) 
InChI=1S/C38H62N8O4/c1-3-5-17-29(35(47)45-33(23-13-15-25-39)37(49)43-31-19-9-7-10-20-31)27-41-42-28-30(18-6-4-2)36(48)46-34(24-14-16-26-40)38(50)44-32-21-11-8-12-22-32/h7-12,19-22,29-30,33-34,41-42H,3-6,13-18,23-28,39-40H2,1-2H3,(H,43,49)(H,44,50)(H,45,47)(H,46,48)/t29-,30-,33-,34-/m0/s1

>  <INCHI_KEY>  (137) 
YFMXWONORHSZEM-ANFUHZJESA-N

>  <INTERNATIONAL_BRANDS>  (137) 
nan

>  <JCHEM_ACCEPTOR_COUNT>  (137) 
12

>  <JCHEM_ATOM_COUNT>  (137) 
nan

>  <JCHEM_AVERAGE_POLARIZABILITY>  (137) 
80.40382279535893

>  <JCHEM_BIOAVAILABILITY>  (137) 
0

>  <JCHEM_DONOR_COUNT>  (137) 
8

>  <JCHEM_FORMAL_CHARGE>  (137) 
0

>  <JCHEM_GHOSE_FILTER>  (137) 
0

>  <JCHEM_IUPAC>  (137) 
(2S)-6-amino-2-{[(2S)-2-({2-[(2S)-2-{[(1S)-5-amino-1-(phenyl-C-hydroxycarbonimidoyl)pentyl]-C-hydroxycarbonimidoyl}-2-butylethyl]hydrazin-1-yl}methyl)-1-hydroxyhexylidene]amino}-N-phenylhexanimidic acid

>  <JCHEM_LOGP>  (137) 
2.2337194487650613

>  <JCHEM_MDDR_LIKE_RULE>  (137) 
0

>  <JCHEM_NUMBER_OF_RINGS>  (137) 
2

>  <JCHEM_PHYSIOLOGICAL_CHARGE>  (137) 
3

>  <JCHEM_PKA>  (137) 
6.244675361229145

>  <JCHEM_PKA_STRONGEST_ACIDIC>  (137) 
5.27590912012697

>  <JCHEM_PKA_STRONGEST_BASIC>  (137) 
10.507282299654362

>  <JCHEM_POLAR_SURFACE_AREA>  (137) 
206.45999999999995

>  <JCHEM_REFRACTIVITY>  (137) 
225.87360000000007

>  <JCHEM_ROTATABLE_BOND_COUNT>  (137) 
27

>  <JCHEM_RULE_OF_FIVE>  (137) 
0

>  <JCHEM_TRADITIONAL_IUPAC>  (137) 
(2S)-6-amino-2-{[(2S)-2-({2-[(2S)-2-{[(1S)-5-amino-1-(phenyl-C-hydroxycarbonimidoyl)pentyl]-C-hydroxycarbonimidoyl}-2-butylethyl]hydrazin-1-yl}methyl)-1-hydroxyhexylidene]amino}-N-phenylhexanimidic acid

>  <JCHEM_VEBER_RULE>  (137) 
0

>  <MOLECULAR_WEIGHT>  (137) 
694.9501

>  <PRODUCTS>  (137) 
nan

>  <SALTS>  (137) 
nan

>  <SECONDARY_ACCESSION_NUMBERS>  (137) 
EXPT00713

>  <SMILES>  (137) 
[H][C@](CCCC)(CNNC[C@]([H])(CCCC)C(O)=N[C@@]([H])(CCCCN)C(O)=NC1=CC=CC=C1)C(O)=N[C@@]([H])(CCCCN)C(O)=NC1=CC=CC=C1

>  <SYNONYMS>  (137) 
nan

>  <ECFP_FP>  (137) 
<rdkit.DataStructs.cDataStructs.ExplicitBitVect object at 0xa268f2b20>

>  <pki_G>  (137) 
5.682705

>  <pki_D>  (137) 
5.798075

>  <pki_B>  (137) 
5.584249

>  <pki_A>  (137) 
5.654267

>  <SelB>  (137) 
0.098456

>  <SelA>  (137) 
0.028438

>  <SelD>  (137) 
-0.11537

>  <AvgABSel>  (137) 
0.063447

>  <MACCS_FP>  (137) 
[0. 0. 0. 0. 0. 0. 0. 0. 0. 0. 0. 0. 0. 0. 0. 0. 0. 0. 0. 0. 0. 0. 0. 0.
 0. 0. 0. 0. 0. 0. 0. 0. 0. 0. 0. 0. 0. 0. 0. 0. 0. 0. 0. 0. 0. 0. 0. 0.
 0. 0. 0. 0. 1. 1. 0. 0. 0. 0. 0. 0. 0. 0. 0. 0. 0. 0. 0. 0. 1. 1. 0. 0.
 0. 0. 0. 0. 0. 0. 1. 1. 1. 0. 1. 0. 1. 0. 0. 0. 0. 0. 1. 1. 1. 0. 1. 1.
 0. 1. 0. 0. 1. 0. 0. 0. 1. 0. 0. 0. 0. 0. 1. 1. 0. 0. 1. 1. 1. 1. 1. 1.
 0. 0. 0. 0. 1. 1. 0. 0. 1. 1. 0. 1. 0. 1. 0. 1. 0. 0. 1. 1. 1. 0. 1. 0.
 0. 1. 1. 1. 0. 1. 0. 1. 0. 1. 0. 1. 1. 1. 1. 1. 1. 1. 1. 1. 1. 1. 0.]

>  <MACCS_pki_G>  (137) 
6.32229

>  <MACCS_pki_D>  (137) 
6.025798

>  <MACCS_pki_B>  (137) 
5.772011

>  <MACCS_pki_A>  (137) 
5.680738

>  <MACCS_SelB>  (137) 
0.550279

>  <MACCS_SelA>  (137) 
0.641552

>  <MACCS_SelD>  (137) 
0.296493

>  <MACCSAvgABSel>  (137) 
0.595916

>  <Pharm2D_FP>  (137) 
[0. 0. 0. ... 0. 0. 0.]

>  <Pharm2D_pki_G>  (137) 
6.334836

>  <Pharm2D_pki_D>  (137) 
5.798096

>  <Pharm2D_pki_B>  (137) 
5.525489

>  <Pharm2D_pki_A>  (137) 
5.210071

>  <Pharm2D_SelB>  (137) 
0.809347

>  <Pharm2D_SelA>  (137) 
1.124764

>  <Pharm2D_SelD>  (137) 
0.53674

>  <Pharm2DAvgABSel>  (137) 
0.967056

>  <QED>  (137) 
0.020751

$$$$
DB03146
     RDKit          2D

 27 29  0  0  1  0  0  0  0  0999 V2000
    1.7798    3.9841    0.0000 C   0  0  0  0  0  0  0  0  0  0  0  0
    3.9934    0.8250    0.0000 C   0  0  0  0  0  0  0  0  0  0  0  0
    1.2949    0.4125    0.0000 C   0  0  0  0  0  0  0  0  0  0  0  0
    1.5249    3.1994    0.0000 C   0  0  0  0  0  0  0  0  0  0  0  0
    2.5645    0.0000    0.0000 C   0  0  0  0  0  0  0  0  0  0  0  0
    0.7403    2.9445    0.0000 C   0  0  0  0  0  0  0  0  0  0  0  0
    0.7403    2.1195    0.0000 C   0  0  0  0  0  0  0  0  0  0  0  0
    2.5645    0.8250    0.0000 C   0  0  0  0  0  0  0  0  0  0  0  0
    3.2789   -0.4125    0.0000 C   0  0  0  0  0  0  0  0  0  0  0  0
    1.5249    1.8646    0.0000 C   0  0  0  0  0  0  0  0  0  0  0  0
    3.2789    1.2375    0.0000 N   0  0  0  0  0  0  0  0  0  0  0  0
    3.9934    0.0000    0.0000 N   0  0  0  0  0  0  0  0  0  0  0  0
    1.7798   -0.2549    0.0000 N   0  0  0  0  0  0  0  0  0  0  0  0
    1.7798    1.0799    0.0000 N   0  0  0  0  0  0  0  0  0  0  0  0
    0.0728    3.4294    0.0000 O   0  0  0  0  0  0  0  0  0  0  0  0
    0.0728    1.6346    0.0000 O   0  0  0  0  0  0  0  0  0  0  0  0
    1.7377    6.1664    0.0000 O   0  0  0  0  0  0  0  0  0  0  0  0
    0.6981    5.6367    0.0000 O   0  0  0  0  0  0  0  0  0  0  0  0
    2.2674    5.1268    0.0000 O   0  0  0  0  0  0  0  0  0  0  0  0
    4.7079   -2.0625    0.0000 O   0  0  0  0  0  0  0  0  0  0  0  0
    3.5809   -2.3645    0.0000 O   0  0  0  0  0  0  0  0  0  0  0  0
    4.4059   -0.9355    0.0000 O   0  0  0  0  0  0  0  0  0  0  0  0
    1.2278    4.5972    0.0000 O   0  0  0  0  0  0  0  0  0  0  0  0
    2.0098    2.5320    0.0000 O   0  0  0  0  0  0  0  0  0  0  0  0
    1.4827    5.3818    0.0000 P   0  0  0  0  0  0  0  0  0  0  0  0
    3.9934   -1.6500    0.0000 P   0  0  0  0  0  0  0  0  0  0  0  0
    3.2789   -1.2375    0.0000 S   0  0  0  0  0  0  0  0  0  0  0  0
  4  1  1  1
  6  4  1  0
  7  6  1  0
  8  5  2  0
  9  5  1  0
 10  7  1  0
 11  2  2  0
 11  8  1  0
 12  2  1  0
 12  9  2  0
 13  3  2  0
 13  5  1  0
 14  3  1  0
 14  8  1  0
 10 14  1  1
  6 15  1  6
  7 16  1  6
 23  1  1  0
 24  4  1  0
 24 10  1  0
 25 17  1  0
 25 18  1  0
 25 19  2  0
 25 23  1  0
 26 20  1  0
 26 21  1  0
 26 22  2  0
 27  9  1  0
 27 26  1  0
M  CHG  1  11   1
M  END
>  <ALOGPS_LOGP>  (138) 
-1.42

>  <ALOGPS_LOGS>  (138) 
-2.25

>  <ALOGPS_SOLUBILITY>  (138) 
2.73e+00 g/l

>  <DATABASE_NAME>  (138) 
drugbank

>  <DRUGBANK_ID>  (138) 
DB03146

>  <DRUG_GROUPS>  (138) 
experimental

>  <EXACT_MASS>  (138) 
444.998411434

>  <FORMULA>  (138) 
C10H15N4O10P2S

>  <GENERIC_NAME>  (138) 
2-deazo-6-thiophosphate guanosine-5'-monophosphate

>  <ID>  (138) 


>  <INCHI_IDENTIFIER>  (138) 
InChI=1S/C10H14N4O10P2S/c15-6-4(1-23-25(17,18)19)24-10(7(6)16)14-3-13-5-8(14)11-2-12-9(5)27-26(20,21)22/h2-4,6-7,10,15-16H,1H2,(H2,17,18,19)(H2,20,21,22)/p+1/t4-,6-,7-,10-/m1/s1

>  <INCHI_KEY>  (138) 
NYBPOGVUIOPXHI-KQYNXXCUSA-O

>  <INTERNATIONAL_BRANDS>  (138) 
nan

>  <JCHEM_ACCEPTOR_COUNT>  (138) 
11

>  <JCHEM_ATOM_COUNT>  (138) 
nan

>  <JCHEM_AVERAGE_POLARIZABILITY>  (138) 
36.44624562144418

>  <JCHEM_BIOAVAILABILITY>  (138) 
0

>  <JCHEM_DONOR_COUNT>  (138) 
7

>  <JCHEM_FORMAL_CHARGE>  (138) 
1

>  <JCHEM_GHOSE_FILTER>  (138) 
0

>  <JCHEM_IUPAC>  (138) 
9-[(2R,3R,4S,5R)-3,4-dihydroxy-5-[(phosphonooxy)methyl]oxolan-2-yl]-6-(phosphonosulfanyl)-9H-purin-3-ium

>  <JCHEM_LOGP>  (138) 
-4.196786942477079

>  <JCHEM_MDDR_LIKE_RULE>  (138) 
1

>  <JCHEM_NUMBER_OF_RINGS>  (138) 
3

>  <JCHEM_PHYSIOLOGICAL_CHARGE>  (138) 
-4

>  <JCHEM_PKA>  (138) 
1.4887829792067215

>  <JCHEM_PKA_STRONGEST_ACIDIC>  (138) 
0.8836100024442222

>  <JCHEM_PKA_STRONGEST_BASIC>  (138) 
4.684151329349486

>  <JCHEM_POLAR_SURFACE_AREA>  (138) 
218.82999999999996

>  <JCHEM_REFRACTIVITY>  (138) 
86.32629999999997

>  <JCHEM_ROTATABLE_BOND_COUNT>  (138) 
6

>  <JCHEM_RULE_OF_FIVE>  (138) 
0

>  <JCHEM_TRADITIONAL_IUPAC>  (138) 
9-[(2R,3R,4S,5R)-3,4-dihydroxy-5-[(phosphonooxy)methyl]oxolan-2-yl]-6-(phosphonosulfanyl)purin-3-ium

>  <JCHEM_VEBER_RULE>  (138) 
0

>  <MOLECULAR_WEIGHT>  (138) 
445.259

>  <PRODUCTS>  (138) 
nan

>  <SALTS>  (138) 
nan

>  <SECONDARY_ACCESSION_NUMBERS>  (138) 
EXPT02944; EXPT02575; DB02682

>  <SMILES>  (138) 
[H][C@]1(COP(O)(O)=O)O[C@@]([H])(N2C=NC3=C2[NH+]=CN=C3SP(O)(O)=O)[C@]([H])(O)[C@]1([H])O

>  <SYNONYMS>  (138) 
nan

>  <ECFP_FP>  (138) 
<rdkit.DataStructs.cDataStructs.ExplicitBitVect object at 0xa267af080>

>  <pki_G>  (138) 
5.680746

>  <pki_D>  (138) 
5.68934

>  <pki_B>  (138) 
5.36678

>  <pki_A>  (138) 
5.182698

>  <SelB>  (138) 
0.313966

>  <SelA>  (138) 
0.498048

>  <SelD>  (138) 
-0.008594

>  <AvgABSel>  (138) 
0.406007

>  <MACCS_FP>  (138) 
[0. 0. 0. 0. 0. 0. 0. 0. 0. 0. 0. 0. 0. 0. 0. 0. 0. 0. 0. 0. 0. 0. 0. 0.
 0. 0. 0. 0. 0. 1. 0. 0. 0. 0. 0. 0. 0. 0. 1. 0. 0. 0. 0. 1. 0. 0. 0. 1.
 1. 1. 0. 0. 0. 0. 1. 0. 0. 1. 0. 1. 0. 0. 1. 0. 1. 1. 0. 1. 0. 1. 0. 0.
 1. 0. 0. 1. 0. 1. 0. 1. 1. 1. 0. 1. 0. 1. 0. 0. 1. 1. 1. 1. 1. 0. 0. 1.
 1. 1. 1. 0. 0. 1. 1. 0. 0. 1. 1. 0. 0. 1. 1. 0. 1. 0. 0. 0. 0. 1. 0. 0.
 1. 1. 1. 0. 1. 1. 1. 1. 0. 0. 1. 1. 1. 1. 0. 0. 1. 1. 0. 1. 1. 0. 1. 1.
 0. 0. 1. 0. 1. 0. 1. 1. 1. 1. 0. 1. 1. 1. 1. 1. 0. 1. 1. 1. 1. 1. 0.]

>  <MACCS_pki_G>  (138) 
6.434368

>  <MACCS_pki_D>  (138) 
5.840321

>  <MACCS_pki_B>  (138) 
5.870197

>  <MACCS_pki_A>  (138) 
5.600444

>  <MACCS_SelB>  (138) 
0.564171

>  <MACCS_SelA>  (138) 
0.833923

>  <MACCS_SelD>  (138) 
0.594047

>  <MACCSAvgABSel>  (138) 
0.699047

>  <Pharm2D_FP>  (138) 
[0. 0. 0. ... 0. 0. 0.]

>  <Pharm2D_pki_G>  (138) 
6.174712

>  <Pharm2D_pki_D>  (138) 
6.191197

>  <Pharm2D_pki_B>  (138) 
5.557156

>  <Pharm2D_pki_A>  (138) 
5.831456

>  <Pharm2D_SelB>  (138) 
0.617556

>  <Pharm2D_SelA>  (138) 
0.343256

>  <Pharm2D_SelD>  (138) 
-0.016485

>  <Pharm2DAvgABSel>  (138) 
0.480406

>  <QED>  (138) 
0.212847

$$$$
DB04287
     RDKit          2D

 36 38  0  0  1  0  0  0  0  0999 V2000
   -0.7145    4.5375    0.0000 C   0  0  0  0  0  0  0  0  0  0  0  0
   -1.4289    4.9500    0.0000 C   0  0  0  0  0  0  0  0  0  0  0  0
    2.8579    5.7750    0.0000 C   0  0  0  0  0  0  0  0  0  0  0  0
  -10.7171    1.2375    0.0000 C   0  0  0  0  0  0  0  0  0  0  0  0
    0.0000    4.9500    0.0000 C   0  0  0  0  0  0  0  0  0  0  0  0
    2.1434    6.1875    0.0000 C   0  0  0  0  0  0  0  0  0  0  0  0
    2.8579    4.9500    0.0000 C   0  0  0  0  0  0  0  0  0  0  0  0
  -10.0026    0.8250    0.0000 C   0  0  0  0  0  0  0  0  0  0  0  0
  -10.7171    2.0625    0.0000 C   0  0  0  0  0  0  0  0  0  0  0  0
   -2.1434    4.5375    0.0000 C   0  0  0  0  0  0  0  0  0  0  0  0
    0.7145    4.5375    0.0000 C   0  0  0  0  0  0  0  0  0  0  0  0
    1.4289    5.7750    0.0000 C   0  0  0  0  0  0  0  0  0  0  0  0
    2.1434    4.5375    0.0000 C   0  0  0  0  0  0  0  0  0  0  0  0
   -9.2881    1.2375    0.0000 C   0  0  0  0  0  0  0  0  0  0  0  0
  -10.0026    2.4750    0.0000 C   0  0  0  0  0  0  0  0  0  0  0  0
   -2.8579    4.9500    0.0000 C   0  0  0  0  0  0  0  0  0  0  0  0
   -7.1447    4.9500    0.0000 C   0  0  0  0  0  0  0  0  0  0  0  0
   -6.4302    3.7125    0.0000 C   0  0  0  0  0  0  0  0  0  0  0  0
   -5.0013    3.7125    0.0000 C   0  0  0  0  0  0  0  0  0  0  0  0
   -7.8592    4.5375    0.0000 C   0  0  0  0  0  0  0  0  0  0  0  0
   -7.1447    3.3000    0.0000 C   0  0  0  0  0  0  0  0  0  0  0  0
   -5.7158    3.3000    0.0000 C   0  0  0  0  0  0  0  0  0  0  0  0
   -5.7158    4.9500    0.0000 C   0  0  0  0  0  0  0  0  0  0  0  0
   -8.5737    2.4750    0.0000 C   0  0  0  0  0  0  0  0  0  0  0  0
    1.4289    4.9500    0.0000 C   0  0  0  0  0  0  0  0  0  0  0  0
   -6.4302    4.5375    0.0000 C   0  0  0  0  0  0  0  0  0  0  0  0
   -9.2881    2.0625    0.0000 C   0  0  0  0  0  0  0  0  0  0  0  0
   -5.0013    4.5375    0.0000 C   0  0  0  0  0  0  0  0  0  0  0  0
   -7.8592    3.7125    0.0000 C   0  0  0  0  0  0  0  0  0  0  0  0
   -3.5724    4.5375    0.0000 C   0  0  0  0  0  0  0  0  0  0  0  0
   -5.7158    2.4750    0.0000 C   0  0  0  0  0  0  0  0  0  0  0  0
   -4.2868    4.9500    0.0000 N   0  0  0  0  0  0  0  0  0  0  0  0
   -3.5724    3.7125    0.0000 O   0  0  0  0  0  0  0  0  0  0  0  0
   -5.0013    2.0625    0.0000 O   0  0  0  0  0  0  0  0  0  0  0  0
   -6.4302    2.0625    0.0000 O   0  0  0  0  0  0  0  0  0  0  0  0
   -8.5737    3.3000    0.0000 O   0  0  0  0  0  0  0  0  0  0  0  0
  2  1  1  0
  5  1  1  0
  6  3  2  0
  7  3  1  0
  8  4  2  0
  9  4  1  0
 10  2  1  0
 11  5  1  0
 12  6  1  0
 13  7  2  0
 14  8  1  0
 15  9  2  0
 16 10  1  0
 20 17  2  0
 21 18  1  0
 22 19  1  0
 25 11  1  0
 25 12  2  0
 25 13  1  0
 26 17  1  0
 26 18  2  0
 26 23  1  0
 27 14  2  0
 27 15  1  0
 27 24  1  0
 28 19  1  1
 28 23  1  0
 29 20  1  0
 29 21  2  0
 30 16  1  0
 31 22  1  0
 28 32  1  0
 32 30  2  3
 30 33  1  0
 34 31  2  0
 35 31  1  0
 36 24  1  0
 36 29  1  0
M  END
>  <ALOGPS_LOGP>  (139) 
6.25

>  <ALOGPS_LOGS>  (139) 
-6.54

>  <ALOGPS_SOLUBILITY>  (139) 
1.40e-04 g/l

>  <DATABASE_NAME>  (139) 
drugbank

>  <DRUGBANK_ID>  (139) 
DB04287

>  <DRUG_GROUPS>  (139) 
experimental

>  <EXACT_MASS>  (139) 
487.272258677

>  <FORMULA>  (139) 
C31H37NO4

>  <GENERIC_NAME>  (139) 
(S)-5-(4-Benzyloxy-Phenyl)-4-(7-Phenyl-Heptanoylamino)-Pentanoic Acid

>  <ID>  (139) 


>  <INCHI_IDENTIFIER>  (139) 
InChI=1S/C31H37NO4/c33-30(16-10-2-1-5-11-25-12-6-3-7-13-25)32-28(19-22-31(34)35)23-26-17-20-29(21-18-26)36-24-27-14-8-4-9-15-27/h3-4,6-9,12-15,17-18,20-21,28H,1-2,5,10-11,16,19,22-24H2,(H,32,33)(H,34,35)/t28-/m0/s1

>  <INCHI_KEY>  (139) 
KWLUIYFCMHKLKY-NDEPHWFRSA-N

>  <INTERNATIONAL_BRANDS>  (139) 
nan

>  <JCHEM_ACCEPTOR_COUNT>  (139) 
5

>  <JCHEM_ATOM_COUNT>  (139) 
nan

>  <JCHEM_AVERAGE_POLARIZABILITY>  (139) 
57.0549627678519

>  <JCHEM_BIOAVAILABILITY>  (139) 
0

>  <JCHEM_DONOR_COUNT>  (139) 
2

>  <JCHEM_FORMAL_CHARGE>  (139) 
0

>  <JCHEM_GHOSE_FILTER>  (139) 
0

>  <JCHEM_IUPAC>  (139) 
(4S)-5-[4-(benzyloxy)phenyl]-4-[(1-hydroxy-7-phenylheptylidene)amino]pentanoic acid

>  <JCHEM_LOGP>  (139) 
7.022718873001232

>  <JCHEM_MDDR_LIKE_RULE>  (139) 
1

>  <JCHEM_NUMBER_OF_RINGS>  (139) 
3

>  <JCHEM_PHYSIOLOGICAL_CHARGE>  (139) 
0

>  <JCHEM_PKA>  (139) 
7.551107079350341

>  <JCHEM_PKA_STRONGEST_ACIDIC>  (139) 
3.9111625368031473

>  <JCHEM_PKA_STRONGEST_BASIC>  (139) 
4.602569019582967

>  <JCHEM_POLAR_SURFACE_AREA>  (139) 
79.12

>  <JCHEM_REFRACTIVITY>  (139) 
143.26380000000003

>  <JCHEM_ROTATABLE_BOND_COUNT>  (139) 
16

>  <JCHEM_RULE_OF_FIVE>  (139) 
0

>  <JCHEM_TRADITIONAL_IUPAC>  (139) 
(4S)-5-[4-(benzyloxy)phenyl]-4-[(1-hydroxy-7-phenylheptylidene)amino]pentanoic acid

>  <JCHEM_VEBER_RULE>  (139) 
0

>  <MOLECULAR_WEIGHT>  (139) 
487.6298

>  <PRODUCTS>  (139) 
nan

>  <SALTS>  (139) 
nan

>  <SECONDARY_ACCESSION_NUMBERS>  (139) 
EXPT00701

>  <SMILES>  (139) 
[H][C@](CCC(O)=O)(CC1=CC=C(OCC2=CC=CC=C2)C=C1)N=C(O)CCCCCCC1=CC=CC=C1

>  <SYNONYMS>  (139) 
nan

>  <ECFP_FP>  (139) 
<rdkit.DataStructs.cDataStructs.ExplicitBitVect object at 0xa26961b70>

>  <pki_G>  (139) 
5.674923

>  <pki_D>  (139) 
5.77176

>  <pki_B>  (139) 
5.39941

>  <pki_A>  (139) 
5.799687

>  <SelB>  (139) 
0.275513

>  <SelA>  (139) 
-0.124764

>  <SelD>  (139) 
-0.096836

>  <AvgABSel>  (139) 
0.075374

>  <MACCS_FP>  (139) 
[0. 0. 0. 0. 0. 0. 0. 0. 0. 0. 0. 0. 0. 0. 0. 0. 0. 0. 0. 0. 0. 0. 0. 0.
 0. 0. 0. 0. 0. 0. 0. 0. 0. 0. 0. 0. 0. 0. 0. 0. 0. 0. 0. 0. 0. 0. 0. 0.
 0. 0. 0. 0. 0. 0. 0. 0. 0. 0. 0. 0. 0. 0. 0. 0. 0. 0. 0. 0. 0. 0. 0. 0.
 0. 0. 0. 0. 0. 0. 1. 0. 0. 0. 0. 0. 0. 0. 0. 0. 0. 0. 1. 1. 1. 0. 0. 0.
 0. 0. 0. 0. 0. 0. 0. 0. 1. 0. 0. 0. 0. 1. 1. 1. 0. 1. 0. 0. 0. 1. 1. 1.
 0. 0. 0. 1. 0. 1. 1. 1. 1. 1. 0. 1. 1. 0. 0. 0. 0. 0. 0. 1. 1. 0. 0. 1.
 0. 1. 1. 1. 0. 0. 0. 0. 1. 1. 1. 1. 1. 1. 1. 1. 0. 1. 1. 1. 1. 1. 0.]

>  <MACCS_pki_G>  (139) 
5.679875

>  <MACCS_pki_D>  (139) 
5.868444

>  <MACCS_pki_B>  (139) 
5.504152

>  <MACCS_pki_A>  (139) 
6.136

>  <MACCS_SelB>  (139) 
0.175723

>  <MACCS_SelA>  (139) 
-0.456125

>  <MACCS_SelD>  (139) 
-0.188568

>  <MACCSAvgABSel>  (139) 
-0.140201

>  <Pharm2D_FP>  (139) 
[0. 0. 0. ... 0. 0. 0.]

>  <Pharm2D_pki_G>  (139) 
6.097669

>  <Pharm2D_pki_D>  (139) 
5.437174

>  <Pharm2D_pki_B>  (139) 
5.346153

>  <Pharm2D_pki_A>  (139) 
5.367474

>  <Pharm2D_SelB>  (139) 
0.751516

>  <Pharm2D_SelA>  (139) 
0.730195

>  <Pharm2D_SelD>  (139) 
0.660495

>  <Pharm2DAvgABSel>  (139) 
0.740855

>  <QED>  (139) 
0.127272

$$$$
DB12819
     RDKit          2D

 18 18  0  0  1  0  0  0  0  0999 V2000
    1.9967    5.2393    0.0000 C   0  0  0  0  0  0  0  0  0  0  0  0
    1.9967    4.4143    0.0000 C   0  0  0  0  0  0  0  0  0  0  0  0
    1.2822    4.0018    0.0000 C   0  0  0  0  0  0  0  0  0  0  0  0
    0.5678    4.4143    0.0000 C   0  0  0  0  0  0  0  0  0  0  0  0
   -0.1467    4.0018    0.0000 C   0  0  0  0  0  0  0  0  0  0  0  0
    1.2822    3.1768    0.0000 C   0  0  0  0  0  0  0  0  0  0  0  0
    1.9967    2.7643    0.0000 C   0  0  0  0  0  0  0  0  0  0  0  0
    2.7112    3.1768    0.0000 O   0  0  0  0  0  0  0  0  0  0  0  0
    0.5678    2.7643    0.0000 N   0  0  0  0  0  0  0  0  0  0  0  0
    0.5678    1.9393    0.0000 S   0  0  0  0  0  0  0  0  0  0  0  0
   -0.2572    1.9393    0.0000 O   0  0  0  0  0  0  0  0  0  0  0  0
    1.3928    1.9393    0.0000 O   0  0  0  0  0  0  0  0  0  0  0  0
    0.5678    1.1143    0.0000 C   0  0  0  0  0  0  0  0  0  0  0  0
    1.2352    0.6294    0.0000 C   0  0  0  0  0  0  0  0  0  0  0  0
    0.9803   -0.1553    0.0000 C   0  0  0  0  0  0  0  0  0  0  0  0
    0.1553   -0.1553    0.0000 C   0  0  0  0  0  0  0  0  0  0  0  0
   -0.0997    0.6294    0.0000 S   0  0  0  0  0  0  0  0  0  0  0  0
   -0.3297   -0.8227    0.0000 Cl  0  0  0  0  0  0  0  0  0  0  0  0
  1  2  1  0
  2  3  1  0
  3  4  1  0
  4  5  1  0
  3  6  1  0
  6  7  1  1
  7  8  1  0
  6  9  1  0
  9 10  1  0
 10 11  2  0
 10 12  2  0
 10 13  1  0
 13 14  2  0
 14 15  1  0
 15 16  2  0
 16 17  1  0
 13 17  1  0
 16 18  1  0
M  END
>  <ALOGPS_LOGP>  (140) 
1.95

>  <ALOGPS_LOGS>  (140) 
-3.61

>  <ALOGPS_SOLUBILITY>  (140) 
7.65e-02 g/l

>  <DATABASE_NAME>  (140) 
drugbank

>  <DRUGBANK_ID>  (140) 
DB12819

>  <DRUG_GROUPS>  (140) 
investigational

>  <EXACT_MASS>  (140) 
311.0416635

>  <FORMULA>  (140) 
C11H18ClNO3S2

>  <GENERIC_NAME>  (140) 
GSI-136

>  <ID>  (140) 


>  <INCHI_IDENTIFIER>  (140) 
InChI=1S/C11H18ClNO3S2/c1-3-8(4-2)9(7-14)13-18(15,16)11-6-5-10(12)17-11/h5-6,8-9,13-14H,3-4,7H2,1-2H3/t9-/m1/s1

>  <INCHI_KEY>  (140) 
PYZFRRVBPNGCBX-SECBINFHSA-N

>  <INTERNATIONAL_BRANDS>  (140) 
nan

>  <JCHEM_ACCEPTOR_COUNT>  (140) 
3

>  <JCHEM_ATOM_COUNT>  (140) 
36

>  <JCHEM_AVERAGE_POLARIZABILITY>  (140) 
31.056529879980335

>  <JCHEM_BIOAVAILABILITY>  (140) 
1

>  <JCHEM_DONOR_COUNT>  (140) 
2

>  <JCHEM_FORMAL_CHARGE>  (140) 
0

>  <JCHEM_GHOSE_FILTER>  (140) 
1

>  <JCHEM_IUPAC>  (140) 
5-chloro-N-[(2S)-3-ethyl-1-hydroxypentan-2-yl]thiophene-2-sulfonamide

>  <JCHEM_LOGP>  (140) 
3.022536787999999

>  <JCHEM_MDDR_LIKE_RULE>  (140) 
0

>  <JCHEM_NUMBER_OF_RINGS>  (140) 
1

>  <JCHEM_PHYSIOLOGICAL_CHARGE>  (140) 
0

>  <JCHEM_PKA>  (140) 
14.948739482366673

>  <JCHEM_PKA_STRONGEST_ACIDIC>  (140) 
8.193754120215948

>  <JCHEM_PKA_STRONGEST_BASIC>  (140) 
-2.7709289456868786

>  <JCHEM_POLAR_SURFACE_AREA>  (140) 
66.4

>  <JCHEM_REFRACTIVITY>  (140) 
72.2517

>  <JCHEM_ROTATABLE_BOND_COUNT>  (140) 
6

>  <JCHEM_RULE_OF_FIVE>  (140) 
1

>  <JCHEM_TRADITIONAL_IUPAC>  (140) 
5-chloro-N-[(2S)-3-ethyl-1-hydroxypentan-2-yl]thiophene-2-sulfonamide

>  <JCHEM_VEBER_RULE>  (140) 
0

>  <MOLECULAR_WEIGHT>  (140) 
311.84

>  <PRODUCTS>  (140) 
nan

>  <SALTS>  (140) 
nan

>  <SECONDARY_ACCESSION_NUMBERS>  (140) 
nan

>  <SMILES>  (140) 
CCC(CC)[C@@H](CO)NS(=O)(=O)C1=CC=C(Cl)S1

>  <SYNONYMS>  (140) 
nan

>  <ECFP_FP>  (140) 
<rdkit.DataStructs.cDataStructs.ExplicitBitVect object at 0xa26c5d4e0>

>  <pki_G>  (140) 
5.673365

>  <pki_D>  (140) 
5.611118

>  <pki_B>  (140) 
5.659036

>  <pki_A>  (140) 
5.411731

>  <SelB>  (140) 
0.014329

>  <SelA>  (140) 
0.261633

>  <SelD>  (140) 
0.062246

>  <AvgABSel>  (140) 
0.137981

>  <MACCS_FP>  (140) 
[0. 0. 0. 0. 0. 0. 0. 0. 0. 0. 0. 0. 0. 0. 0. 0. 0. 0. 0. 0. 0. 0. 0. 0.
 0. 0. 0. 0. 0. 0. 0. 0. 1. 1. 0. 0. 1. 0. 0. 0. 0. 0. 0. 0. 0. 0. 0. 0.
 0. 0. 0. 1. 0. 0. 1. 1. 0. 0. 1. 1. 1. 1. 0. 0. 1. 0. 0. 1. 0. 1. 0. 0.
 0. 1. 0. 0. 0. 0. 0. 0. 0. 1. 1. 1. 0. 0. 0. 1. 1. 0. 1. 1. 0. 0. 1. 1.
 1. 0. 0. 0. 0. 0. 1. 1. 1. 0. 1. 1. 1. 1. 0. 1. 1. 0. 1. 0. 1. 1. 0. 0.
 0. 0. 0. 0. 1. 0. 0. 0. 0. 1. 1. 1. 0. 0. 1. 0. 1. 1. 0. 1. 0. 0. 0. 0.
 0. 0. 1. 0. 1. 1. 0. 1. 0. 1. 0. 1. 1. 1. 1. 1. 1. 1. 1. 0. 1. 1. 0.]

>  <MACCS_pki_G>  (140) 
6.484613

>  <MACCS_pki_D>  (140) 
5.917203

>  <MACCS_pki_B>  (140) 
5.947795

>  <MACCS_pki_A>  (140) 
5.429733

>  <MACCS_SelB>  (140) 
0.536817

>  <MACCS_SelA>  (140) 
1.05488

>  <MACCS_SelD>  (140) 
0.56741

>  <MACCSAvgABSel>  (140) 
0.795849

>  <Pharm2D_FP>  (140) 
[0. 0. 0. ... 0. 0. 0.]

>  <Pharm2D_pki_G>  (140) 
5.84111

>  <Pharm2D_pki_D>  (140) 
5.59654

>  <Pharm2D_pki_B>  (140) 
5.371818

>  <Pharm2D_pki_A>  (140) 
5.059484

>  <Pharm2D_SelB>  (140) 
0.469292

>  <Pharm2D_SelA>  (140) 
0.781626

>  <Pharm2D_SelD>  (140) 
0.24457

>  <Pharm2DAvgABSel>  (140) 
0.625459

>  <QED>  (140) 
0.812704

$$$$
DB02493
     RDKit          2D

 19 20  0  0  1  0  0  0  0  0999 V2000
   -0.6674    1.3099    0.0000 C   0  0  0  0  0  0  0  0  0  0  0  0
   -0.0000    0.8250    0.0000 C   0  0  0  0  0  0  0  0  0  0  0  0
   -0.0000    0.0000    0.0000 C   0  0  0  0  0  0  0  0  0  0  0  0
    0.7846   -0.2549    0.0000 C   0  0  0  0  0  0  0  0  0  0  0  0
    1.7545    1.0799    0.0000 C   0  0  0  0  0  0  0  0  0  0  0  0
    2.5391   -0.0000    0.0000 C   0  0  0  0  0  0  0  0  0  0  0  0
    1.2695    0.4125    0.0000 C   0  0  0  0  0  0  0  0  0  0  0  0
    2.5391    0.8250    0.0000 N   0  0  0  0  0  0  0  0  0  0  0  0
    1.7545   -0.2549    0.0000 N   0  0  0  0  0  0  0  0  0  0  0  0
   -0.6674   -0.4849    0.0000 O   0  0  0  0  0  0  0  0  0  0  0  0
    1.0396   -1.0396    0.0000 O   0  0  0  0  0  0  0  0  0  0  0  0
    1.4995    1.8646    0.0000 O   0  0  0  0  0  0  0  0  0  0  0  0
    3.2065   -0.4849    0.0000 O   0  0  0  0  0  0  0  0  0  0  0  0
   -1.9161    3.1002    0.0000 O   0  0  0  0  0  0  0  0  0  0  0  0
   -0.7637    3.2828    0.0000 O   0  0  0  0  0  0  0  0  0  0  0  0
   -1.7336    1.9479    0.0000 O   0  0  0  0  0  0  0  0  0  0  0  0
   -0.5812    2.1304    0.0000 O   0  0  0  0  0  0  0  0  0  0  0  0
    0.7846    1.0799    0.0000 O   0  0  0  0  0  0  0  0  0  0  0  0
   -1.2486    2.6153    0.0000 P   0  0  0  0  0  0  0  0  0  0  0  0
  2  1  1  1
  3  2  1  0
  4  3  1  0
  7  4  1  0
  7  5  1  0
  8  5  2  0
  8  6  1  0
  9  6  2  0
  7  9  1  1
  3 10  1  6
  4 11  1  6
 12  5  1  0
 13  6  1  0
 17  1  1  0
 18  2  1  0
 18  7  1  0
 19 14  1  0
 19 15  1  0
 19 16  2  0
 19 17  1  0
M  END
>  <ALOGPS_LOGP>  (141) 
-1.89

>  <ALOGPS_LOGS>  (141) 
-1.25

>  <ALOGPS_SOLUBILITY>  (141) 
1.68e+01 g/l

>  <DATABASE_NAME>  (141) 
drugbank

>  <DRUGBANK_ID>  (141) 
DB02493

>  <DRUG_GROUPS>  (141) 
experimental

>  <EXACT_MASS>  (141) 
298.020216472

>  <FORMULA>  (141) 
C7H11N2O9P

>  <GENERIC_NAME>  (141) 
Hydantocidin-5'-Phosphate

>  <ID>  (141) 


>  <INCHI_IDENTIFIER>  (141) 
InChI=1S/C7H11N2O9P/c10-3-2(1-17-19(14,15)16)18-7(4(3)11)5(12)8-6(13)9-7/h2-4,10-11H,1H2,(H2,14,15,16)(H2,8,9,12,13)/t2-,3-,4-,7+/m1/s1

>  <INCHI_KEY>  (141) 
HVXIMXHBUJADCC-GTBMBKLPSA-N

>  <INTERNATIONAL_BRANDS>  (141) 
nan

>  <JCHEM_ACCEPTOR_COUNT>  (141) 
10

>  <JCHEM_ATOM_COUNT>  (141) 
nan

>  <JCHEM_AVERAGE_POLARIZABILITY>  (141) 
23.594656740548075

>  <JCHEM_BIOAVAILABILITY>  (141) 
1

>  <JCHEM_DONOR_COUNT>  (141) 
6

>  <JCHEM_FORMAL_CHARGE>  (141) 
0

>  <JCHEM_GHOSE_FILTER>  (141) 
0

>  <JCHEM_IUPAC>  (141) 
{[(5S,7R,8S,9R)-2,4,8,9-tetrahydroxy-6-oxa-1,3-diazaspiro[4.4]nona-1,3-dien-7-yl]methoxy}phosphonic acid

>  <JCHEM_LOGP>  (141) 
-1.5653233696666664

>  <JCHEM_MDDR_LIKE_RULE>  (141) 
0

>  <JCHEM_NUMBER_OF_RINGS>  (141) 
2

>  <JCHEM_PHYSIOLOGICAL_CHARGE>  (141) 
-2

>  <JCHEM_PKA>  (141) 
2.2396483945690604

>  <JCHEM_PKA_STRONGEST_ACIDIC>  (141) 
1.1706975282225884

>  <JCHEM_PKA_STRONGEST_BASIC>  (141) 
-2.454927095779997

>  <JCHEM_POLAR_SURFACE_AREA>  (141) 
181.63

>  <JCHEM_REFRACTIVITY>  (141) 
54.919799999999995

>  <JCHEM_ROTATABLE_BOND_COUNT>  (141) 
3

>  <JCHEM_RULE_OF_FIVE>  (141) 
0

>  <JCHEM_TRADITIONAL_IUPAC>  (141) 
[(5S,7R,8S,9R)-2,4,8,9-tetrahydroxy-6-oxa-1,3-diazaspiro[4.4]nona-1,3-dien-7-yl]methoxyphosphonic acid

>  <JCHEM_VEBER_RULE>  (141) 
0

>  <MOLECULAR_WEIGHT>  (141) 
298.144

>  <PRODUCTS>  (141) 
nan

>  <SALTS>  (141) 
nan

>  <SECONDARY_ACCESSION_NUMBERS>  (141) 
EXPT01683; DB02150

>  <SMILES>  (141) 
[H][C@]1(COP(O)(O)=O)O[C@@]2(N=C(O)N=C2O)[C@]([H])(O)[C@]1([H])O

>  <SYNONYMS>  (141) 
nan

>  <ECFP_FP>  (141) 
<rdkit.DataStructs.cDataStructs.ExplicitBitVect object at 0xa26730d50>

>  <pki_G>  (141) 
5.670783

>  <pki_D>  (141) 
5.780066

>  <pki_B>  (141) 
5.412111

>  <pki_A>  (141) 
5.149669

>  <SelB>  (141) 
0.258671

>  <SelA>  (141) 
0.521114

>  <SelD>  (141) 
-0.109283

>  <AvgABSel>  (141) 
0.389893

>  <MACCS_FP>  (141) 
[0. 0. 0. 0. 0. 0. 0. 0. 0. 0. 0. 0. 0. 0. 0. 0. 0. 0. 0. 0. 0. 0. 0. 0.
 0. 0. 0. 0. 0. 1. 0. 0. 0. 0. 0. 0. 0. 1. 0. 0. 0. 0. 0. 1. 0. 0. 0. 0.
 1. 0. 0. 0. 0. 1. 1. 0. 0. 1. 0. 0. 0. 0. 0. 0. 0. 0. 0. 0. 0. 1. 0. 0.
 1. 0. 0. 0. 0. 1. 1. 1. 0. 0. 0. 1. 0. 0. 0. 0. 0. 1. 1. 1. 1. 0. 0. 1.
 1. 1. 0. 0. 0. 0. 1. 0. 0. 1. 1. 0. 0. 1. 1. 0. 1. 0. 0. 0. 0. 1. 0. 1.
 1. 1. 0. 0. 1. 0. 1. 1. 0. 0. 1. 1. 1. 0. 0. 0. 0. 1. 0. 1. 1. 0. 1. 1.
 0. 0. 1. 0. 1. 0. 1. 0. 1. 1. 0. 1. 1. 1. 1. 1. 0. 1. 0. 0. 1. 1. 0.]

>  <MACCS_pki_G>  (141) 
6.248438

>  <MACCS_pki_D>  (141) 
5.713577

>  <MACCS_pki_B>  (141) 
5.640628

>  <MACCS_pki_A>  (141) 
5.523333

>  <MACCS_SelB>  (141) 
0.60781

>  <MACCS_SelA>  (141) 
0.725104

>  <MACCS_SelD>  (141) 
0.53486

>  <MACCSAvgABSel>  (141) 
0.666457

>  <Pharm2D_FP>  (141) 
[0. 0. 0. ... 0. 0. 0.]

>  <Pharm2D_pki_G>  (141) 
5.892869

>  <Pharm2D_pki_D>  (141) 
5.82136

>  <Pharm2D_pki_B>  (141) 
5.523582

>  <Pharm2D_pki_A>  (141) 
4.846609

>  <Pharm2D_SelB>  (141) 
0.369286

>  <Pharm2D_SelA>  (141) 
1.046259

>  <Pharm2D_SelD>  (141) 
0.071509

>  <Pharm2DAvgABSel>  (141) 
0.707773

>  <QED>  (141) 
0.314641

$$$$
DB03230
     RDKit          2D

 26 28  0  0  1  0  0  0  0  0999 V2000
   -2.3119   -5.4102    0.0000 C   0  0  0  0  0  0  0  0  0  0  0  0
   -2.3981   -4.5897    0.0000 C   0  0  0  0  0  0  0  0  0  0  0  0
   -1.7307   -4.1048    0.0000 C   0  0  0  0  0  0  0  0  0  0  0  0
   -0.5683   -1.4940    0.0000 C   0  0  0  0  0  0  0  0  0  0  0  0
    3.3523    1.1104    0.0000 C   0  0  0  0  0  0  0  0  0  0  0  0
    0.6538    1.5229    0.0000 C   0  0  0  0  0  0  0  0  0  0  0  0
    0.0992   -1.0091    0.0000 C   0  0  0  0  0  0  0  0  0  0  0  0
    1.9233    1.9354    0.0000 C   0  0  0  0  0  0  0  0  0  0  0  0
    0.8838   -1.2640    0.0000 C   0  0  0  0  0  0  0  0  0  0  0  0
    1.3687   -0.5966    0.0000 C   0  0  0  0  0  0  0  0  0  0  0  0
    2.6378    2.3479    0.0000 C   0  0  0  0  0  0  0  0  0  0  0  0
    1.9233    1.1104    0.0000 C   0  0  0  0  0  0  0  0  0  0  0  0
    0.8838    0.0709    0.0000 C   0  0  0  0  0  0  0  0  0  0  0  0
    2.6378    3.1729    0.0000 N   0  0  0  0  0  0  0  0  0  0  0  0
    3.3523    1.9354    0.0000 N   0  0  0  0  0  0  0  0  0  0  0  0
    2.6378    0.6979    0.0000 N   0  0  0  0  0  0  0  0  0  0  0  0
    1.1387    2.1904    0.0000 N   0  0  0  0  0  0  0  0  0  0  0  0
    1.1387    0.8555    0.0000 N   0  0  0  0  0  0  0  0  0  0  0  0
    1.1387   -2.0486    0.0000 O   0  0  0  0  0  0  0  0  0  0  0  0
    2.1937   -0.5966    0.0000 O   0  0  0  0  0  0  0  0  0  0  0  0
   -0.6646   -3.4668    0.0000 O   0  0  0  0  0  0  0  0  0  0  0  0
   -1.6344   -2.1319    0.0000 O   0  0  0  0  0  0  0  0  0  0  0  0
   -1.8169   -3.2843    0.0000 O   0  0  0  0  0  0  0  0  0  0  0  0
   -0.4820   -2.3145    0.0000 O   0  0  0  0  0  0  0  0  0  0  0  0
    0.0992   -0.1841    0.0000 O   0  0  0  0  0  0  0  0  0  0  0  0
   -1.1495   -2.7994    0.0000 P   0  0  0  0  0  0  0  0  0  0  0  0
  2  1  1  0
  3  2  1  0
  7  4  1  1
  9  7  1  0
 10  9  1  0
 11  8  2  0
 12  8  1  0
 13 10  1  0
 14 11  1  0
 15  5  2  0
 15 11  1  0
 16  5  1  0
 16 12  2  0
 17  6  2  0
 17  8  1  0
 18  6  1  0
 18 12  1  0
 13 18  1  1
  9 19  1  6
 10 20  1  6
 23  3  1  0
 24  4  1  0
 25  7  1  0
 25 13  1  0
 26 21  1  0
 26 22  2  0
 26 23  1  0
 26 24  1  0
M  END
>  <ALOGPS_LOGP>  (142) 
-2.41

>  <ALOGPS_LOGS>  (142) 
-2.12

>  <ALOGPS_SOLUBILITY>  (142) 
2.98e+00 g/l

>  <DATABASE_NAME>  (142) 
drugbank

>  <DRUGBANK_ID>  (142) 
DB03230

>  <DRUG_GROUPS>  (142) 
experimental

>  <EXACT_MASS>  (142) 
389.110034531

>  <FORMULA>  (142) 
C13H20N5O7P

>  <GENERIC_NAME>  (142) 
Adenosine-5'-Propylphosphate

>  <ID>  (142) 


>  <INCHI_IDENTIFIER>  (142) 
InChI=1S/C13H20N5O7P/c1-2-3-23-26(21,22)24-4-7-9(19)10(20)13(25-7)18-6-17-8-11(14)15-5-16-12(8)18/h5-7,9-10,13,19-20H,2-4H2,1H3,(H,21,22)(H2,14,15,16)/t7-,9-,10-,13-/m1/s1

>  <INCHI_KEY>  (142) 
XAMXMSZRQHPMRX-QYVSTXNMSA-N

>  <INTERNATIONAL_BRANDS>  (142) 
nan

>  <JCHEM_ACCEPTOR_COUNT>  (142) 
9

>  <JCHEM_ATOM_COUNT>  (142) 
nan

>  <JCHEM_AVERAGE_POLARIZABILITY>  (142) 
35.44767235636917

>  <JCHEM_BIOAVAILABILITY>  (142) 
1

>  <JCHEM_DONOR_COUNT>  (142) 
4

>  <JCHEM_FORMAL_CHARGE>  (142) 
0

>  <JCHEM_GHOSE_FILTER>  (142) 
0

>  <JCHEM_IUPAC>  (142) 
{[(2R,3S,4R,5R)-5-(6-amino-9H-purin-9-yl)-3,4-dihydroxyoxolan-2-yl]methoxy}(propoxy)phosphinic acid

>  <JCHEM_LOGP>  (142) 
-3.6086801471522363

>  <JCHEM_MDDR_LIKE_RULE>  (142) 
1

>  <JCHEM_NUMBER_OF_RINGS>  (142) 
3

>  <JCHEM_PHYSIOLOGICAL_CHARGE>  (142) 
-1

>  <JCHEM_PKA>  (142) 
12.457192450176215

>  <JCHEM_PKA_STRONGEST_ACIDIC>  (142) 
1.9155343490462498

>  <JCHEM_PKA_STRONGEST_BASIC>  (142) 
4.9886479626889715

>  <JCHEM_POLAR_SURFACE_AREA>  (142) 
175.06999999999996

>  <JCHEM_REFRACTIVITY>  (142) 
87.82339999999999

>  <JCHEM_ROTATABLE_BOND_COUNT>  (142) 
7

>  <JCHEM_RULE_OF_FIVE>  (142) 
1

>  <JCHEM_TRADITIONAL_IUPAC>  (142) 
[(2R,3S,4R,5R)-5-(6-aminopurin-9-yl)-3,4-dihydroxyoxolan-2-yl]methoxy(propoxy)phosphinic acid

>  <JCHEM_VEBER_RULE>  (142) 
0

>  <MOLECULAR_WEIGHT>  (142) 
389.301

>  <PRODUCTS>  (142) 
nan

>  <SALTS>  (142) 
nan

>  <SECONDARY_ACCESSION_NUMBERS>  (142) 
EXPT02666

>  <SMILES>  (142) 
[H][C@]1(COP(O)(=O)OCCC)O[C@@]([H])(N2C=NC3=C(N)N=CN=C23)[C@]([H])(O)[C@]1([H])O

>  <SYNONYMS>  (142) 
nan

>  <ECFP_FP>  (142) 
<rdkit.DataStructs.cDataStructs.ExplicitBitVect object at 0xa267b9170>

>  <pki_G>  (142) 
5.666981

>  <pki_D>  (142) 
5.734018

>  <pki_B>  (142) 
5.359242

>  <pki_A>  (142) 
5.229539

>  <SelB>  (142) 
0.307739

>  <SelA>  (142) 
0.437442

>  <SelD>  (142) 
-0.067038

>  <AvgABSel>  (142) 
0.37259

>  <MACCS_FP>  (142) 
[0. 0. 0. 0. 0. 0. 0. 0. 0. 0. 0. 0. 0. 0. 0. 0. 0. 0. 0. 0. 0. 0. 0. 0.
 0. 0. 0. 0. 0. 1. 0. 0. 0. 0. 0. 0. 0. 0. 1. 0. 0. 0. 0. 0. 0. 0. 0. 0.
 1. 0. 0. 0. 0. 0. 1. 0. 0. 1. 0. 0. 0. 0. 1. 0. 0. 1. 0. 0. 0. 1. 0. 0.
 1. 0. 0. 1. 0. 1. 0. 1. 1. 0. 0. 1. 1. 1. 0. 0. 0. 1. 1. 1. 1. 0. 0. 1.
 1. 1. 1. 0. 0. 1. 1. 0. 0. 1. 1. 0. 0. 1. 1. 0. 1. 0. 1. 1. 0. 1. 1. 0.
 1. 1. 1. 0. 1. 1. 1. 1. 1. 0. 1. 1. 1. 1. 0. 1. 0. 1. 1. 1. 1. 0. 1. 1.
 0. 0. 1. 1. 1. 0. 1. 1. 1. 1. 0. 1. 1. 1. 1. 1. 1. 1. 1. 1. 1. 1. 0.]

>  <MACCS_pki_G>  (142) 
6.313601

>  <MACCS_pki_D>  (142) 
5.779744

>  <MACCS_pki_B>  (142) 
5.74978

>  <MACCS_pki_A>  (142) 
5.777048

>  <MACCS_SelB>  (142) 
0.563821

>  <MACCS_SelA>  (142) 
0.536554

>  <MACCS_SelD>  (142) 
0.533857

>  <MACCSAvgABSel>  (142) 
0.550187

>  <Pharm2D_FP>  (142) 
[0. 0. 0. ... 0. 0. 0.]

>  <Pharm2D_pki_G>  (142) 
6.102454

>  <Pharm2D_pki_D>  (142) 
6.05274

>  <Pharm2D_pki_B>  (142) 
5.588149

>  <Pharm2D_pki_A>  (142) 
5.686663

>  <Pharm2D_SelB>  (142) 
0.514305

>  <Pharm2D_SelA>  (142) 
0.41579

>  <Pharm2D_SelD>  (142) 
0.049714

>  <Pharm2DAvgABSel>  (142) 
0.465047

>  <QED>  (142) 
0.452117

$$$$
DB03250
     RDKit          2D

 21 23  0  0  0  0  0  0  0  0999 V2000
   -1.3879   -0.8717    0.0000 C   0  0  0  0  0  0  0  0  0  0  0  0
   -1.8004   -1.5862    0.0000 C   0  0  0  0  0  0  0  0  0  0  0  0
   -1.3879   -2.3006    0.0000 O   0  0  0  0  0  0  0  0  0  0  0  0
   -2.6254   -1.5862    0.0000 C   0  0  0  0  0  0  0  0  0  0  0  0
   -3.0379   -2.3006    0.0000 O   0  0  0  0  0  0  0  0  0  0  0  0
   -3.0379   -0.8717    0.0000 C   0  0  0  0  0  0  0  0  0  0  0  0
   -3.8629   -0.8717    0.0000 O   0  0  0  0  0  0  0  0  0  0  0  0
   -2.6254   -0.1572    0.0000 C   0  0  0  0  0  0  0  0  0  0  0  0
   -1.8004   -0.1572    0.0000 O   0  0  0  0  0  0  0  0  0  0  0  0
   -3.0379    0.5572    0.0000 C   0  0  0  0  0  0  0  0  0  0  0  0
   -2.6254    1.2717    0.0000 O   0  0  0  0  0  0  0  0  0  0  0  0
   -0.5629   -0.8717    0.0000 C   0  0  0  0  0  0  0  0  0  0  0  0
   -0.0780   -0.2043    0.0000 N   0  0  0  0  0  0  0  0  0  0  0  0
    0.7066   -0.4592    0.0000 C   0  0  0  0  0  0  0  0  0  0  0  0
    1.4211   -0.0467    0.0000 C   0  0  0  0  0  0  0  0  0  0  0  0
    2.1356   -0.4592    0.0000 C   0  0  0  0  0  0  0  0  0  0  0  0
    2.1356   -1.2842    0.0000 C   0  0  0  0  0  0  0  0  0  0  0  0
    1.4211   -1.6967    0.0000 C   0  0  0  0  0  0  0  0  0  0  0  0
    0.7066   -1.2842    0.0000 C   0  0  0  0  0  0  0  0  0  0  0  0
   -0.0780   -1.5391    0.0000 S   0  0  0  0  0  0  0  0  0  0  0  0
    2.8501   -0.0467    0.0000 C   0  0  0  0  0  0  0  0  0  0  0  0
  1  2  1  0
  1  9  1  0
  1 12  1  1
  2  3  1  6
  2  4  1  0
  4  5  1  1
  4  6  1  0
  6  7  1  6
  6  8  1  0
  8  9  1  0
  8 10  1  1
 10 11  1  0
 12 13  2  0
 12 20  1  0
 13 14  1  0
 14 15  2  0
 14 19  1  0
 15 16  1  0
 16 17  2  0
 16 21  1  0
 17 18  1  0
 18 19  2  0
 19 20  1  0
M  END
>  <ALOGPS_LOGP>  (143) 
-0.08

>  <ALOGPS_LOGS>  (143) 
-2.35

>  <ALOGPS_SOLUBILITY>  (143) 
1.39e+00 g/l

>  <DATABASE_NAME>  (143) 
drugbank

>  <DRUGBANK_ID>  (143) 
DB03250

>  <DRUG_GROUPS>  (143) 
experimental

>  <EXACT_MASS>  (143) 
311.082743349

>  <FORMULA>  (143) 
C14H17NO5S

>  <GENERIC_NAME>  (143) 
2-(Beta-D-Glucopyranosyl)-5-Methyl-1,3,4-Benzothiazole

>  <ID>  (143) 
TH1

>  <INCHI_IDENTIFIER>  (143) 
InChI=1S/C14H17NO5S/c1-6-2-3-9-7(4-6)15-14(21-9)13-12(19)11(18)10(17)8(5-16)20-13/h2-4,8,10-13,16-19H,5H2,1H3/t8-,10-,11+,12-,13-/m1/s1

>  <INCHI_KEY>  (143) 
WGJFWQVWYRZPEP-KABOQKQYSA-N

>  <INTERNATIONAL_BRANDS>  (143) 
nan

>  <JCHEM_ACCEPTOR_COUNT>  (143) 
6

>  <JCHEM_ATOM_COUNT>  (143) 
nan

>  <JCHEM_AVERAGE_POLARIZABILITY>  (143) 
30.92978351027212

>  <JCHEM_BIOAVAILABILITY>  (143) 
1

>  <JCHEM_DONOR_COUNT>  (143) 
4

>  <JCHEM_FORMAL_CHARGE>  (143) 
0

>  <JCHEM_GHOSE_FILTER>  (143) 
1

>  <JCHEM_IUPAC>  (143) 
(2R,3S,4S,5R,6R)-2-(hydroxymethyl)-6-(5-methyl-1,3-benzothiazol-2-yl)oxane-3,4,5-triol

>  <JCHEM_LOGP>  (143) 
0.09492791933333347

>  <JCHEM_MDDR_LIKE_RULE>  (143) 
0

>  <JCHEM_NUMBER_OF_RINGS>  (143) 
3

>  <JCHEM_PHYSIOLOGICAL_CHARGE>  (143) 
0

>  <JCHEM_PKA>  (143) 
13.339761311897043

>  <JCHEM_PKA_STRONGEST_ACIDIC>  (143) 
12.458929540611994

>  <JCHEM_PKA_STRONGEST_BASIC>  (143) 
1.6372557755666513

>  <JCHEM_POLAR_SURFACE_AREA>  (143) 
103.04

>  <JCHEM_REFRACTIVITY>  (143) 
74.6903

>  <JCHEM_ROTATABLE_BOND_COUNT>  (143) 
2

>  <JCHEM_RULE_OF_FIVE>  (143) 
1

>  <JCHEM_TRADITIONAL_IUPAC>  (143) 
(2R,3S,4S,5R,6R)-2-(hydroxymethyl)-6-(5-methyl-1,3-benzothiazol-2-yl)oxane-3,4,5-triol

>  <JCHEM_VEBER_RULE>  (143) 
0

>  <MOLECULAR_WEIGHT>  (143) 
311.353

>  <PRODUCTS>  (143) 
nan

>  <SALTS>  (143) 
nan

>  <SECONDARY_ACCESSION_NUMBERS>  (143) 
EXPT03046

>  <SMILES>  (143) 
[H][C@]1(CO)O[C@@]([H])(C2=NC3=CC(C)=CC=C3S2)[C@]([H])(O)[C@@]([H])(O)[C@]1([H])O

>  <SYNONYMS>  (143) 
nan

>  <ECFP_FP>  (143) 
<rdkit.DataStructs.cDataStructs.ExplicitBitVect object at 0xa267b9bc0>

>  <pki_G>  (143) 
5.662149

>  <pki_D>  (143) 
5.650571

>  <pki_B>  (143) 
5.439139

>  <pki_A>  (143) 
5.154131

>  <SelB>  (143) 
0.223009

>  <SelA>  (143) 
0.508018

>  <SelD>  (143) 
0.011577

>  <AvgABSel>  (143) 
0.365514

>  <MACCS_FP>  (143) 
[0. 0. 0. 0. 0. 0. 0. 0. 0. 0. 0. 0. 0. 0. 0. 0. 0. 0. 0. 0. 0. 0. 0. 0.
 0. 0. 0. 0. 0. 0. 0. 0. 0. 0. 0. 0. 1. 0. 0. 0. 0. 0. 0. 0. 0. 0. 0. 1.
 0. 0. 0. 0. 0. 1. 1. 0. 0. 1. 0. 0. 0. 0. 1. 0. 0. 1. 0. 0. 0. 0. 0. 0.
 1. 0. 0. 0. 0. 0. 0. 0. 0. 1. 1. 1. 0. 0. 0. 0. 1. 1. 1. 1. 0. 0. 0. 1.
 1. 1. 1. 0. 0. 1. 0. 0. 0. 1. 0. 0. 0. 1. 0. 0. 0. 0. 0. 0. 0. 0. 0. 0.
 1. 1. 0. 0. 0. 1. 0. 1. 0. 0. 0. 1. 1. 0. 0. 0. 0. 1. 0. 1. 1. 0. 0. 1.
 0. 1. 1. 0. 0. 0. 1. 0. 1. 1. 0. 1. 1. 1. 0. 1. 1. 1. 1. 1. 1. 1. 0.]

>  <MACCS_pki_G>  (143) 
6.373426

>  <MACCS_pki_D>  (143) 
5.649615

>  <MACCS_pki_B>  (143) 
5.850799

>  <MACCS_pki_A>  (143) 
5.689453

>  <MACCS_SelB>  (143) 
0.522627

>  <MACCS_SelA>  (143) 
0.683973

>  <MACCS_SelD>  (143) 
0.723811

>  <MACCSAvgABSel>  (143) 
0.6033

>  <Pharm2D_FP>  (143) 
[0. 0. 0. ... 0. 0. 0.]

>  <Pharm2D_pki_G>  (143) 
5.829482

>  <Pharm2D_pki_D>  (143) 
5.847921

>  <Pharm2D_pki_B>  (143) 
5.507066

>  <Pharm2D_pki_A>  (143) 
5.69321

>  <Pharm2D_SelB>  (143) 
0.322416

>  <Pharm2D_SelA>  (143) 
0.136271

>  <Pharm2D_SelD>  (143) 
-0.018439

>  <Pharm2DAvgABSel>  (143) 
0.229343

>  <QED>  (143) 
0.628081

$$$$
DB08500
     RDKit          2D

 25 28  0  0  0  0  0  0  0  0999 V2000
   -1.8382    0.0370    0.0000 C   0  0  0  0  0  0  0  0  0  0  0  0
   -2.5057   -0.4479    0.0000 C   0  0  0  0  0  0  0  0  0  0  0  0
   -3.2593   -0.1124    0.0000 C   0  0  0  0  0  0  0  0  0  0  0  0
   -3.9268   -0.5973    0.0000 C   0  0  0  0  0  0  0  0  0  0  0  0
   -3.8405   -1.4178    0.0000 C   0  0  0  0  0  0  0  0  0  0  0  0
   -3.0869   -1.7533    0.0000 C   0  0  0  0  0  0  0  0  0  0  0  0
   -2.4194   -1.2684    0.0000 C   0  0  0  0  0  0  0  0  0  0  0  0
   -1.6658   -1.6040    0.0000 C   0  0  0  0  0  0  0  0  0  0  0  0
   -0.9983   -1.1191    0.0000 C   0  0  0  0  0  0  0  0  0  0  0  0
   -1.0846   -0.2986    0.0000 C   0  0  0  0  0  0  0  0  0  0  0  0
   -0.4171    0.1863    0.0000 C   0  0  0  0  0  0  0  0  0  0  0  0
    0.3675   -0.0686    0.0000 C   0  0  0  0  0  0  0  0  0  0  0  0
   -0.4171    1.0113    0.0000 N   0  0  0  0  0  0  0  0  0  0  0  0
    0.3675    1.2663    0.0000 O   0  0  0  0  0  0  0  0  0  0  0  0
    0.8524    0.5988    0.0000 C   0  0  0  0  0  0  0  0  0  0  0  0
    1.2649    1.3133    0.0000 O   0  0  0  0  0  0  0  0  0  0  0  0
    2.0899    1.3133    0.0000 C   0  0  0  0  0  0  0  0  0  0  0  0
    2.5024    2.0278    0.0000 C   0  0  0  0  0  0  0  0  0  0  0  0
    2.0899    2.7423    0.0000 O   0  0  0  0  0  0  0  0  0  0  0  0
    2.5024    0.5988    0.0000 C   0  0  0  0  0  0  0  0  0  0  0  0
    3.3274    0.5988    0.0000 O   0  0  0  0  0  0  0  0  0  0  0  0
    2.0899   -0.1156    0.0000 C   0  0  0  0  0  0  0  0  0  0  0  0
    2.5024   -0.8301    0.0000 O   0  0  0  0  0  0  0  0  0  0  0  0
    1.2649   -0.1156    0.0000 C   0  0  0  0  0  0  0  0  0  0  0  0
    0.8524   -0.8301    0.0000 O   0  0  0  0  0  0  0  0  0  0  0  0
  1 10  2  0
  1  2  1  0
  2  7  2  0
  3  2  1  0
  3  4  2  0
  4  5  1  0
  5  6  2  0
  7  8  1  0
  7  6  1  0
  9  8  2  0
 10  9  1  0
 11 10  1  1
 12 11  1  0
 13 11  1  0
 14 13  1  0
 15 16  1  0
 15 14  1  0
 15 12  1  6
 17 18  1  6
 17 16  1  0
 19 18  1  0
 20 17  1  0
 20 21  1  1
 22 20  1  0
 22 24  1  0
 22 23  1  6
 24 15  1  0
 24 25  1  1
M  END
>  <ALOGPS_LOGP>  (144) 
0.14

>  <ALOGPS_LOGS>  (144) 
-1.89

>  <ALOGPS_SOLUBILITY>  (144) 
4.45e+00 g/l

>  <DATABASE_NAME>  (144) 
drugbank

>  <DRUGBANK_ID>  (144) 
DB08500

>  <DRUG_GROUPS>  (144) 
experimental

>  <EXACT_MASS>  (144) 
347.136887409

>  <FORMULA>  (144) 
C18H21NO6

>  <GENERIC_NAME>  (144) 
(3S,5R,7R,8S,9S,10R)-7-(hydroxymethyl)-3-(2-naphthyl)-1,6-dioxa-2-azaspiro[4.5]decane-8,9,10-triol

>  <ID>  (144) 
S06

>  <INCHI_IDENTIFIER>  (144) 
InChI=1S/C18H21NO6/c20-9-14-15(21)16(22)17(23)18(24-14)8-13(19-25-18)12-6-5-10-3-1-2-4-11(10)7-12/h1-7,13-17,19-23H,8-9H2/t13-,14+,15+,16-,17+,18+/m0/s1

>  <INCHI_KEY>  (144) 
ZCJBDRSKHARECB-PYTCMNEWSA-N

>  <INTERNATIONAL_BRANDS>  (144) 
nan

>  <JCHEM_ACCEPTOR_COUNT>  (144) 
7

>  <JCHEM_ATOM_COUNT>  (144) 
nan

>  <JCHEM_AVERAGE_POLARIZABILITY>  (144) 
34.960092338195906

>  <JCHEM_BIOAVAILABILITY>  (144) 
1

>  <JCHEM_DONOR_COUNT>  (144) 
5

>  <JCHEM_FORMAL_CHARGE>  (144) 
0

>  <JCHEM_GHOSE_FILTER>  (144) 
1

>  <JCHEM_IUPAC>  (144) 
(3S,5R,7R,8S,9S,10R)-7-(hydroxymethyl)-3-(naphthalen-2-yl)-1,6-dioxa-2-azaspiro[4.5]decane-8,9,10-triol

>  <JCHEM_LOGP>  (144) 
0.5539803510000002

>  <JCHEM_MDDR_LIKE_RULE>  (144) 
0

>  <JCHEM_NUMBER_OF_RINGS>  (144) 
4

>  <JCHEM_PHYSIOLOGICAL_CHARGE>  (144) 
0

>  <JCHEM_PKA>  (144) 
13.155473188959142

>  <JCHEM_PKA_STRONGEST_ACIDIC>  (144) 
12.074514149596824

>  <JCHEM_PKA_STRONGEST_BASIC>  (144) 
4.175848383776751

>  <JCHEM_POLAR_SURFACE_AREA>  (144) 
111.41000000000001

>  <JCHEM_REFRACTIVITY>  (144) 
97.64400000000002

>  <JCHEM_ROTATABLE_BOND_COUNT>  (144) 
2

>  <JCHEM_RULE_OF_FIVE>  (144) 
1

>  <JCHEM_TRADITIONAL_IUPAC>  (144) 
(3S,5R,7R,8S,9S,10R)-7-(hydroxymethyl)-3-(naphthalen-2-yl)-1,6-dioxa-2-azaspiro[4.5]decane-8,9,10-triol

>  <JCHEM_VEBER_RULE>  (144) 
0

>  <MOLECULAR_WEIGHT>  (144) 
347.3624

>  <PRODUCTS>  (144) 
nan

>  <SALTS>  (144) 
nan

>  <SECONDARY_ACCESSION_NUMBERS>  (144) 
nan

>  <SMILES>  (144) 
[H][C@]1(C[C@]2(ON1)O[C@]([H])(CO)[C@@]([H])(O)[C@]([H])(O)[C@@]2([H])O)C1=CC2=CC=CC=C2C=C1

>  <SYNONYMS>  (144) 
nan

>  <ECFP_FP>  (144) 
<rdkit.DataStructs.cDataStructs.ExplicitBitVect object at 0xa26b2d440>

>  <pki_G>  (144) 
5.661705

>  <pki_D>  (144) 
5.893312

>  <pki_B>  (144) 
5.419073

>  <pki_A>  (144) 
5.319451

>  <SelB>  (144) 
0.242632

>  <SelA>  (144) 
0.342254

>  <SelD>  (144) 
-0.231607

>  <AvgABSel>  (144) 
0.292443

>  <MACCS_FP>  (144) 
[0. 0. 0. 0. 0. 0. 0. 0. 0. 0. 0. 0. 0. 0. 0. 0. 0. 0. 0. 0. 0. 0. 0. 0.
 1. 0. 0. 0. 0. 0. 0. 0. 0. 0. 0. 0. 0. 0. 0. 0. 0. 0. 0. 0. 0. 0. 0. 0.
 0. 0. 0. 0. 0. 1. 1. 0. 0. 1. 0. 0. 0. 0. 1. 0. 0. 0. 0. 0. 0. 1. 0. 1.
 1. 0. 0. 0. 0. 0. 0. 0. 0. 0. 1. 1. 0. 0. 0. 0. 0. 1. 1. 1. 0. 0. 1. 1.
 1. 1. 1. 0. 0. 1. 1. 0. 1. 1. 0. 0. 0. 1. 0. 1. 1. 0. 0. 0. 0. 0. 0. 0.
 1. 1. 0. 1. 1. 1. 0. 1. 1. 0. 0. 1. 1. 0. 0. 0. 0. 1. 0. 1. 1. 0. 0. 1.
 0. 1. 1. 0. 0. 0. 1. 1. 1. 1. 0. 1. 1. 1. 1. 1. 0. 1. 1. 1. 1. 1. 0.]

>  <MACCS_pki_G>  (144) 
6.736709

>  <MACCS_pki_D>  (144) 
6.025458

>  <MACCS_pki_B>  (144) 
6.166146

>  <MACCS_pki_A>  (144) 
6.012834

>  <MACCS_SelB>  (144) 
0.570562

>  <MACCS_SelA>  (144) 
0.723875

>  <MACCS_SelD>  (144) 
0.711251

>  <MACCSAvgABSel>  (144) 
0.647219

>  <Pharm2D_FP>  (144) 
[0. 0. 0. ... 0. 0. 0.]

>  <Pharm2D_pki_G>  (144) 
5.819638

>  <Pharm2D_pki_D>  (144) 
5.75221

>  <Pharm2D_pki_B>  (144) 
5.402621

>  <Pharm2D_pki_A>  (144) 
5.69321

>  <Pharm2D_SelB>  (144) 
0.417017

>  <Pharm2D_SelA>  (144) 
0.126428

>  <Pharm2D_SelD>  (144) 
0.067428

>  <Pharm2DAvgABSel>  (144) 
0.271722

>  <QED>  (144) 
0.518913

$$$$
DB14763
     RDKit          2D

 17 18  0  0  0  0  0  0  0  0999 V2000
    0.6594   -1.6499    0.0000 N   0  0  0  0  0  0  0  0  0  0  0  0
   -0.0550   -2.0624    0.0000 C   0  0  0  0  0  0  0  0  0  0  0  0
   -0.7695   -1.6499    0.0000 N   0  0  0  0  0  0  0  0  0  0  0  0
   -0.7695   -0.8250    0.0000 C   0  0  0  0  0  0  0  0  0  0  0  0
   -0.0550   -0.4125    0.0000 N   0  0  0  0  0  0  0  0  0  0  0  0
    0.6593   -0.8249    0.0000 C   0  0  0  0  0  0  0  0  0  0  0  0
   -0.0550   -2.8874    0.0000 N   0  0  0  0  0  0  0  0  0  0  0  0
   -1.4839   -0.4124    0.0000 N   0  0  0  0  0  0  0  0  0  0  0  0
    1.0965   -0.1253    0.0000 C   0  0  0  0  0  0  0  0  0  0  0  0
    1.4839   -0.7962    0.0000 C   0  0  0  0  0  0  0  0  0  0  0  0
   -0.0550    0.4125    0.0000 C   0  0  0  0  0  0  0  0  0  0  0  0
    0.6594    0.8251    0.0000 C   0  0  0  0  0  0  0  0  0  0  0  0
    0.6593    1.6501    0.0000 C   0  0  0  0  0  0  0  0  0  0  0  0
   -0.0550    2.0625    0.0000 C   0  0  0  0  0  0  0  0  0  0  0  0
   -0.7695    1.6500    0.0000 C   0  0  0  0  0  0  0  0  0  0  0  0
   -0.7695    0.8251    0.0000 C   0  0  0  0  0  0  0  0  0  0  0  0
   -0.0550    2.8874    0.0000 Cl  0  0  0  0  0  0  0  0  0  0  0  0
  6  1  1  0
  2  1  2  0
  2  3  1  0
  2  7  1  0
  4  3  2  0
  4  8  1  0
  4  5  1  0
 11  5  1  0
  6  5  1  0
 10  6  1  0
  6  9  1  0
 11 16  1  0
 11 12  2  0
 12 13  1  0
 13 14  2  0
 14 17  1  0
 14 15  1  0
 15 16  2  0
M  END
>  <ALOGPS_LOGP>  (145) 
1.06

>  <ALOGPS_LOGS>  (145) 
-3.01

>  <ALOGPS_SOLUBILITY>  (145) 
2.46e-01 g/l

>  <DATABASE_NAME>  (145) 
drugbank

>  <DRUGBANK_ID>  (145) 
DB14763

>  <DRUG_GROUPS>  (145) 
approved

>  <EXACT_MASS>  (145) 
251.09377318

>  <FORMULA>  (145) 
C11H14ClN5

>  <GENERIC_NAME>  (145) 
Cycloguanil

>  <ID>  (145) 


>  <INCHI_IDENTIFIER>  (145) 
InChI=1S/C11H14ClN5/c1-11(2)16-9(13)15-10(14)17(11)8-5-3-7(12)4-6-8/h3-6H,1-2H3,(H4,13,14,15,16)

>  <INCHI_KEY>  (145) 
QMNFFXRFOJIOKZ-UHFFFAOYSA-N

>  <INTERNATIONAL_BRANDS>  (145) 
nan

>  <JCHEM_ACCEPTOR_COUNT>  (145) 
5

>  <JCHEM_ATOM_COUNT>  (145) 
31

>  <JCHEM_AVERAGE_POLARIZABILITY>  (145) 
25.514939020603542

>  <JCHEM_BIOAVAILABILITY>  (145) 
1

>  <JCHEM_DONOR_COUNT>  (145) 
2

>  <JCHEM_FORMAL_CHARGE>  (145) 
0

>  <JCHEM_GHOSE_FILTER>  (145) 
1

>  <JCHEM_IUPAC>  (145) 
1-(4-chlorophenyl)-6,6-dimethyl-1,6-dihydro-1,3,5-triazine-2,4-diamine

>  <JCHEM_LOGP>  (145) 
1.7011515446666665

>  <JCHEM_MDDR_LIKE_RULE>  (145) 
0

>  <JCHEM_NUMBER_OF_RINGS>  (145) 
2

>  <JCHEM_PHYSIOLOGICAL_CHARGE>  (145) 
1

>  <JCHEM_PKA>  (145) 
nan

>  <JCHEM_PKA_STRONGEST_ACIDIC>  (145) 
16.130373674425474

>  <JCHEM_PKA_STRONGEST_BASIC>  (145) 
8.178226000634139

>  <JCHEM_POLAR_SURFACE_AREA>  (145) 
80.0

>  <JCHEM_REFRACTIVITY>  (145) 
68.8396

>  <JCHEM_ROTATABLE_BOND_COUNT>  (145) 
1

>  <JCHEM_RULE_OF_FIVE>  (145) 
1

>  <JCHEM_TRADITIONAL_IUPAC>  (145) 
cycloguanil

>  <JCHEM_VEBER_RULE>  (145) 
0

>  <MOLECULAR_WEIGHT>  (145) 
251.715

>  <PRODUCTS>  (145) 
nan

>  <SALTS>  (145) 
Cycloguanil embonate

>  <SECONDARY_ACCESSION_NUMBERS>  (145) 
nan

>  <SMILES>  (145) 
CC1(C)N=C(N)N=C(N)N1C1=CC=C(Cl)C=C1

>  <SYNONYMS>  (145) 
CGT; Chlorguanide triazine; Cycloguanilum; Cycloguanyl

>  <ECFP_FP>  (145) 
<rdkit.DataStructs.cDataStructs.ExplicitBitVect object at 0xa26d2e9e0>

>  <pki_G>  (145) 
5.660686

>  <pki_D>  (145) 
5.795813

>  <pki_B>  (145) 
5.587386

>  <pki_A>  (145) 
4.902708

>  <SelB>  (145) 
0.0733

>  <SelA>  (145) 
0.757978

>  <SelD>  (145) 
-0.135127

>  <AvgABSel>  (145) 
0.415639

>  <MACCS_FP>  (145) 
[0. 0. 0. 0. 0. 0. 0. 0. 0. 0. 0. 0. 0. 0. 0. 0. 0. 0. 0. 0. 0. 0. 0. 0.
 0. 1. 0. 0. 0. 0. 0. 0. 0. 0. 0. 0. 0. 0. 1. 0. 0. 0. 0. 0. 0. 0. 0. 0.
 0. 0. 0. 0. 0. 1. 0. 0. 0. 0. 0. 0. 0. 0. 1. 0. 0. 0. 0. 0. 0. 0. 0. 0.
 0. 0. 1. 1. 0. 1. 1. 0. 1. 0. 0. 0. 1. 1. 0. 1. 0. 0. 0. 0. 0. 0. 0. 0.
 0. 0. 1. 0. 0. 0. 0. 1. 0. 0. 1. 1. 0. 0. 0. 0. 1. 0. 0. 0. 0. 0. 0. 1.
 1. 1. 1. 0. 0. 0. 0. 0. 0. 0. 0. 1. 0. 1. 1. 1. 0. 1. 0. 0. 0. 0. 1. 0.
 0. 1. 0. 0. 1. 1. 1. 1. 0. 0. 0. 0. 1. 0. 1. 0. 1. 1. 1. 1. 0. 1. 0.]

>  <MACCS_pki_G>  (145) 
6.305016

>  <MACCS_pki_D>  (145) 
5.747058

>  <MACCS_pki_B>  (145) 
5.705471

>  <MACCS_pki_A>  (145) 
5.348293

>  <MACCS_SelB>  (145) 
0.599545

>  <MACCS_SelA>  (145) 
0.956723

>  <MACCS_SelD>  (145) 
0.557958

>  <MACCSAvgABSel>  (145) 
0.778134

>  <Pharm2D_FP>  (145) 
[0. 0. 0. ... 0. 0. 0.]

>  <Pharm2D_pki_G>  (145) 
5.876724

>  <Pharm2D_pki_D>  (145) 
5.612592

>  <Pharm2D_pki_B>  (145) 
5.377247

>  <Pharm2D_pki_A>  (145) 
5.051563

>  <Pharm2D_SelB>  (145) 
0.499477

>  <Pharm2D_SelA>  (145) 
0.825161

>  <Pharm2D_SelD>  (145) 
0.264132

>  <Pharm2DAvgABSel>  (145) 
0.662319

>  <QED>  (145) 
0.794303

$$$$
DB11938
     RDKit          2D

 49 51  0  0  1  0  0  0  0  0999 V2000
    5.9469  -12.8724    0.0000 C   0  0  0  0  0  0  0  0  0  0  0  0
    6.7477  -13.0705    0.0000 C   0  0  0  0  0  0  0  0  0  0  0  0
    6.9765  -13.8632    0.0000 C   0  0  0  0  0  0  0  0  0  0  0  0
    7.3198  -12.4761    0.0000 C   0  0  0  0  0  0  0  0  0  0  0  0
    7.0909  -11.6834    0.0000 C   0  0  0  0  0  0  0  0  0  0  0  0
    6.2901  -11.4853    0.0000 C   0  0  0  0  0  0  0  0  0  0  0  0
    6.0613  -10.6926    0.0000 O   0  0  0  0  0  0  0  0  0  0  0  0
    5.7181  -12.0797    0.0000 N   0  0  0  0  0  0  0  0  0  0  0  0
    4.9172  -11.8816    0.0000 C   0  0  0  0  0  0  0  0  0  0  0  0
    4.6884  -11.0890    0.0000 C   0  0  0  0  0  0  0  0  0  0  0  0
    3.8875  -10.8908    0.0000 C   0  0  0  0  0  0  0  0  0  0  0  0
    3.6587  -10.0982    0.0000 C   0  0  0  0  0  0  0  0  0  0  0  0
    2.8579   -9.9000    0.0000 C   0  0  0  0  0  0  0  0  0  0  0  0
    2.2858  -10.4945    0.0000 N   0  0  0  0  0  0  0  0  0  0  0  0
    4.3452  -12.4761    0.0000 C   0  0  0  0  0  0  0  0  0  0  0  0
    4.5740  -13.2687    0.0000 O   0  0  0  0  0  0  0  0  0  0  0  0
    3.5443  -12.2779    0.0000 N   0  0  0  0  0  0  0  0  0  0  0  0
    2.9723  -12.8724    0.0000 C   0  0  0  0  0  0  0  0  0  0  0  0
    2.1714  -12.6742    0.0000 C   0  0  0  0  0  0  0  0  0  0  0  0
    1.9426  -11.8816    0.0000 C   0  0  0  0  0  0  0  0  0  0  0  0
    2.5147  -11.2871    0.0000 C   0  0  0  0  0  0  0  0  0  0  0  0
    3.3155  -11.4853    0.0000 C   0  0  0  0  0  0  0  0  0  0  0  0
    1.1425  -12.0826    0.0000 C   0  0  0  0  0  0  0  0  0  0  0  0
    0.9165  -12.8760    0.0000 O   0  0  0  0  0  0  0  0  0  0  0  0
    0.5683  -11.4902    0.0000 O   0  0  0  0  0  0  0  0  0  0  0  0
    1.3286  -11.3306    0.0000 N   0  0  0  0  0  0  0  0  0  0  0  0
    7.6630  -11.0890    0.0000 N   0  0  0  0  0  0  0  0  0  0  0  0
    8.4638  -11.2871    0.0000 C   0  0  0  0  0  0  0  0  0  0  0  0
    8.6926  -12.0797    0.0000 O   0  0  0  0  0  0  0  0  0  0  0  0
    9.0359  -10.6926    0.0000 C   0  0  0  0  0  0  0  0  0  0  0  0
    8.8070   -9.9000    0.0000 C   0  0  0  0  0  0  0  0  0  0  0  0
    8.0062   -9.7018    0.0000 C   0  0  0  0  0  0  0  0  0  0  0  0
    7.4342  -10.2963    0.0000 C   0  0  0  0  0  0  0  0  0  0  0  0
    6.6333  -10.0982    0.0000 C   0  0  0  0  0  0  0  0  0  0  0  0
    6.4045   -9.3055    0.0000 C   0  0  0  0  0  0  0  0  0  0  0  0
    6.9765   -8.7110    0.0000 C   0  0  0  0  0  0  0  0  0  0  0  0
    7.7774   -8.9092    0.0000 C   0  0  0  0  0  0  0  0  0  0  0  0
    9.8367  -10.8908    0.0000 N   0  0  0  0  0  0  0  0  0  0  0  0
   10.4087  -10.2963    0.0000 C   0  0  0  0  0  0  0  0  0  0  0  0
   10.1799   -9.5037    0.0000 O   0  0  0  0  0  0  0  0  0  0  0  0
   11.2096  -10.4945    0.0000 C   0  0  0  0  0  0  0  0  0  0  0  0
   11.7816   -9.9000    0.0000 C   0  0  0  0  0  0  0  0  0  0  0  0
   12.5825  -10.0982    0.0000 C   0  0  0  0  0  0  0  0  0  0  0  0
   13.1545   -9.5037    0.0000 C   0  0  0  0  0  0  0  0  0  0  0  0
   13.9554   -9.7018    0.0000 C   0  0  0  0  0  0  0  0  0  0  0  0
   14.1842  -10.4945    0.0000 C   0  0  0  0  0  0  0  0  0  0  0  0
   13.6121  -11.0890    0.0000 C   0  0  0  0  0  0  0  0  0  0  0  0
   12.8113  -10.8908    0.0000 C   0  0  0  0  0  0  0  0  0  0  0  0
   11.4384  -11.2871    0.0000 N   0  0  0  0  0  0  0  0  0  0  0  0
  1  2  1  0
  2  3  1  0
  2  4  1  0
  5  4  1  6
  5  6  1  0
  6  7  2  0
  6  8  1  0
  9  8  1  0
  9 10  1  1
 10 11  1  0
 11 12  1  0
 12 13  1  0
 13 14  1  0
  9 15  1  0
 15 16  2  0
 15 17  1  0
 17 18  1  0
 18 19  1  0
 19 20  1  0
 20 21  1  0
 21 22  1  0
 17 22  1  0
 20 23  1  0
 23 24  2  0
 23 25  1  0
 20 26  1  0
  5 27  1  0
 27 28  1  0
 28 29  2  0
 28 30  1  0
 30 31  1  1
 31 32  1  0
 32 33  2  0
 33 34  1  0
 34 35  2  0
 35 36  1  0
 36 37  2  0
 32 37  1  0
 30 38  1  0
 38 39  1  0
 39 40  2  0
 39 41  1  0
 41 42  1  0
 42 43  1  0
 43 44  2  0
 44 45  1  0
 45 46  2  0
 46 47  1  0
 47 48  2  0
 43 48  1  0
 41 49  1  1
M  END
>  <ALOGPS_LOGP>  (146) 
-0.86

>  <ALOGPS_LOGS>  (146) 
-4.82

>  <ALOGPS_SOLUBILITY>  (146) 
1.03e-02 g/l

>  <DATABASE_NAME>  (146) 
drugbank

>  <DRUGBANK_ID>  (146) 
DB11938

>  <DRUG_GROUPS>  (146) 
investigational

>  <EXACT_MASS>  (146) 
679.405732455

>  <FORMULA>  (146) 
C36H53N7O6

>  <GENERIC_NAME>  (146) 
Difelikefalin

>  <ID>  (146) 


>  <INCHI_IDENTIFIER>  (146) 
InChI=1S/C36H53N7O6/c1-24(2)21-29(32(45)40-28(15-9-10-18-37)34(47)43-19-16-36(39,17-20-43)35(48)49)42-33(46)30(23-26-13-7-4-8-14-26)41-31(44)27(38)22-25-11-5-3-6-12-25/h3-8,11-14,24,27-30H,9-10,15-23,37-39H2,1-2H3,(H,40,45)(H,41,44)(H,42,46)(H,48,49)/t27-,28-,29-,30-/m1/s1

>  <INCHI_KEY>  (146) 
FWMNVWWHGCHHJJ-SKKKGAJSSA-N

>  <INTERNATIONAL_BRANDS>  (146) 
nan

>  <JCHEM_ACCEPTOR_COUNT>  (146) 
9

>  <JCHEM_ATOM_COUNT>  (146) 
102

>  <JCHEM_AVERAGE_POLARIZABILITY>  (146) 
74.20789752564811

>  <JCHEM_BIOAVAILABILITY>  (146) 
0

>  <JCHEM_DONOR_COUNT>  (146) 
7

>  <JCHEM_FORMAL_CHARGE>  (146) 
0

>  <JCHEM_GHOSE_FILTER>  (146) 
0

>  <JCHEM_IUPAC>  (146) 
4-amino-1-[(2R)-6-amino-2-[(2R)-2-[(2R)-2-[(2R)-2-amino-3-phenylpropanamido]-3-phenylpropanamido]-4-methylpentanamido]hexanoyl]piperidine-4-carboxylic acid

>  <JCHEM_LOGP>  (146) 
-1.6914534204581548

>  <JCHEM_MDDR_LIKE_RULE>  (146) 
1

>  <JCHEM_NUMBER_OF_RINGS>  (146) 
3

>  <JCHEM_PHYSIOLOGICAL_CHARGE>  (146) 
2

>  <JCHEM_PKA>  (146) 
12.101804154122377

>  <JCHEM_PKA_STRONGEST_ACIDIC>  (146) 
1.9213476387680632

>  <JCHEM_PKA_STRONGEST_BASIC>  (146) 
10.256745146850815

>  <JCHEM_POLAR_SURFACE_AREA>  (146) 
222.97

>  <JCHEM_REFRACTIVITY>  (146) 
185.73509999999993

>  <JCHEM_ROTATABLE_BOND_COUNT>  (146) 
18

>  <JCHEM_RULE_OF_FIVE>  (146) 
0

>  <JCHEM_TRADITIONAL_IUPAC>  (146) 
4-amino-1-[(2R)-6-amino-2-[(2R)-2-[(2R)-2-[(2R)-2-amino-3-phenylpropanamido]-3-phenylpropanamido]-4-methylpentanamido]hexanoyl]piperidine-4-carboxylic acid

>  <JCHEM_VEBER_RULE>  (146) 
0

>  <MOLECULAR_WEIGHT>  (146) 
679.863

>  <PRODUCTS>  (146) 
nan

>  <SALTS>  (146) 
nan

>  <SECONDARY_ACCESSION_NUMBERS>  (146) 
nan

>  <SMILES>  (146) 
CC(C)C[C@@H](NC(=O)[C@@H](CC1=CC=CC=C1)NC(=O)[C@H](N)CC1=CC=CC=C1)C(=O)N[C@H](CCCCN)C(=O)N1CCC(N)(CC1)C(O)=O

>  <SYNONYMS>  (146) 
nan

>  <ECFP_FP>  (146) 
<rdkit.DataStructs.cDataStructs.ExplicitBitVect object at 0xa26bf4670>

>  <pki_G>  (146) 
5.656088

>  <pki_D>  (146) 
5.984857

>  <pki_B>  (146) 
5.392652

>  <pki_A>  (146) 
5.940904

>  <SelB>  (146) 
0.263436

>  <SelA>  (146) 
-0.284816

>  <SelD>  (146) 
-0.328769

>  <AvgABSel>  (146) 
-0.01069

>  <MACCS_FP>  (146) 
[0. 0. 0. 0. 0. 0. 0. 0. 0. 0. 0. 0. 0. 0. 0. 0. 0. 0. 0. 0. 0. 0. 0. 0.
 0. 0. 0. 0. 0. 0. 0. 0. 0. 0. 0. 0. 0. 0. 0. 0. 0. 0. 0. 0. 0. 0. 0. 0.
 0. 0. 0. 0. 0. 0. 1. 0. 0. 0. 0. 0. 0. 0. 0. 0. 0. 0. 1. 0. 0. 0. 0. 0.
 0. 0. 1. 1. 0. 0. 0. 1. 1. 0. 1. 0. 1. 1. 1. 0. 0. 0. 1. 1. 1. 0. 0. 1.
 0. 0. 1. 0. 1. 0. 0. 0. 1. 0. 0. 0. 0. 0. 1. 1. 1. 0. 0. 1. 0. 1. 1. 0.
 0. 1. 1. 1. 0. 1. 0. 0. 1. 1. 0. 1. 0. 1. 0. 0. 1. 1. 1. 1. 1. 0. 1. 0.
 0. 1. 1. 1. 1. 1. 0. 1. 0. 1. 1. 1. 1. 1. 1. 1. 1. 1. 1. 1. 1. 1. 0.]

>  <MACCS_pki_G>  (146) 
5.833508

>  <MACCS_pki_D>  (146) 
5.820649

>  <MACCS_pki_B>  (146) 
5.360017

>  <MACCS_pki_A>  (146) 
5.743909

>  <MACCS_SelB>  (146) 
0.473491

>  <MACCS_SelA>  (146) 
0.089599

>  <MACCS_SelD>  (146) 
0.012858

>  <MACCSAvgABSel>  (146) 
0.281545

>  <Pharm2D_FP>  (146) 
[0. 0. 0. ... 0. 0. 0.]

>  <Pharm2D_pki_G>  (146) 
6.378409

>  <Pharm2D_pki_D>  (146) 
5.749873

>  <Pharm2D_pki_B>  (146) 
5.66889

>  <Pharm2D_pki_A>  (146) 
5.38112

>  <Pharm2D_SelB>  (146) 
0.709519

>  <Pharm2D_SelA>  (146) 
0.997289

>  <Pharm2D_SelD>  (146) 
0.628536

>  <Pharm2DAvgABSel>  (146) 
0.853404

>  <QED>  (146) 
0.110742

$$$$
DB11507
     RDKit          2D

 29 30  0  0  1  0  0  0  0  0999 V2000
   -0.2227    9.2161    0.0000 C   0  0  0  0  0  0  0  0  0  0  0  0
   -0.2227    8.3911    0.0000 C   0  0  0  0  0  0  0  0  0  0  0  0
   -0.9372    9.6286    0.0000 C   0  0  0  0  0  0  0  0  0  0  0  0
    0.4917    7.9786    0.0000 C   0  0  0  0  0  0  0  0  0  0  0  0
   -0.6861   15.8851    0.0000 C   0  0  0  0  0  0  0  0  0  0  0  0
   -1.4707   16.1400    0.0000 C   0  0  0  0  0  0  0  0  0  0  0  0
   -0.5146   15.0781    0.0000 C   0  0  0  0  0  0  0  0  0  0  0  0
   -1.6517    9.2161    0.0000 C   0  0  0  0  0  0  0  0  0  0  0  0
    1.2062    8.3911    0.0000 C   0  0  0  0  0  0  0  0  0  0  0  0
   -2.0108   11.8081    0.0000 C   0  0  0  0  0  0  0  0  0  0  0  0
   -1.8393   11.0011    0.0000 C   0  0  0  0  0  0  0  0  0  0  0  0
   -1.9123   14.7810    0.0000 C   0  0  0  0  0  0  0  0  0  0  0  0
   -3.6718    9.9061    0.0000 C   0  0  0  0  0  0  0  0  0  0  0  0
   -1.5692   13.1671    0.0000 C   0  0  0  0  0  0  0  0  0  0  0  0
   -2.0838   15.5880    0.0000 C   0  0  0  0  0  0  0  0  0  0  0  0
   -1.3977   12.3601    0.0000 C   0  0  0  0  0  0  0  0  0  0  0  0
   -1.1277   14.5261    0.0000 C   0  0  0  0  0  0  0  0  0  0  0  0
   -2.3661    9.6286    0.0000 C   0  0  0  0  0  0  0  0  0  0  0  0
   -2.4524   10.4491    0.0000 C   0  0  0  0  0  0  0  0  0  0  0  0
   -3.1198    9.2931    0.0000 C   0  0  0  0  0  0  0  0  0  0  0  0
   -3.2593   10.6206    0.0000 C   0  0  0  0  0  0  0  0  0  0  0  0
    1.9207    7.9786    0.0000 C   0  0  0  0  0  0  0  0  0  0  0  0
   -2.8684   15.8430    0.0000 Cl  0  0  0  0  0  0  0  0  0  0  0  0
   -0.6131   12.1052    0.0000 O   0  0  0  0  0  0  0  0  0  0  0  0
   -3.2913    8.4861    0.0000 O   0  0  0  0  0  0  0  0  0  0  0  0
   -3.5949   11.3743    0.0000 O   0  0  0  0  0  0  0  0  0  0  0  0
    2.6352    8.3911    0.0000 O   0  0  0  0  0  0  0  0  0  0  0  0
    1.9207    7.1536    0.0000 O   0  0  0  0  0  0  0  0  0  0  0  0
   -0.9561   13.7191    0.0000 O   0  0  0  0  0  0  0  0  0  0  0  0
  2  1  1  0
  3  1  2  0
  4  2  1  0
  6  5  2  0
  7  5  1  0
  8  3  1  0
  9  4  1  0
 11 10  2  0
 15  6  1  0
 15 12  2  0
 16 10  1  0
 16 14  1  0
 17  7  2  0
 17 12  1  0
 18  8  1  1
 19 11  1  6
 19 18  1  0
 20 13  1  0
 20 18  1  0
 21 13  1  0
 21 19  1  0
 22  9  1  0
 23 15  1  0
 16 24  1  6
 20 25  1  1
 21 26  1  1
 27 22  2  0
 28 22  1  0
 29 14  1  0
 29 17  1  0
M  END
>  <ALOGPS_LOGP>  (147) 
3.69

>  <ALOGPS_LOGS>  (147) 
-4.10

>  <ALOGPS_SOLUBILITY>  (147) 
3.37e-02 g/l

>  <DATABASE_NAME>  (147) 
drugbank

>  <DRUGBANK_ID>  (147) 
DB11507

>  <DRUG_GROUPS>  (147) 
vet_approved

>  <EXACT_MASS>  (147) 
424.1652664

>  <FORMULA>  (147) 
C22H29ClO6

>  <GENERIC_NAME>  (147) 
Cloprostenol

>  <ID>  (147) 


>  <INCHI_IDENTIFIER>  (147) 
InChI=1S/C22H29ClO6/c23-15-6-5-7-17(12-15)29-14-16(24)10-11-19-18(20(25)13-21(19)26)8-3-1-2-4-9-22(27)28/h1,3,5-7,10-12,16,18-21,24-26H,2,4,8-9,13-14H2,(H,27,28)/b3-1-,11-10+/t16-,18-,19-,20+,21-/m1/s1

>  <INCHI_KEY>  (147) 
VJGGHXVGBSZVMZ-QIZQQNKQSA-N

>  <INTERNATIONAL_BRANDS>  (147) 
nan

>  <JCHEM_ACCEPTOR_COUNT>  (147) 
6

>  <JCHEM_ATOM_COUNT>  (147) 
58

>  <JCHEM_AVERAGE_POLARIZABILITY>  (147) 
44.48796335251357

>  <JCHEM_BIOAVAILABILITY>  (147) 
1

>  <JCHEM_DONOR_COUNT>  (147) 
4

>  <JCHEM_FORMAL_CHARGE>  (147) 
0

>  <JCHEM_GHOSE_FILTER>  (147) 
1

>  <JCHEM_IUPAC>  (147) 
(5Z)-7-[(1R,2R,3R,5S)-2-[(1E,3R)-4-(3-chlorophenoxy)-3-hydroxybut-1-en-1-yl]-3,5-dihydroxycyclopentyl]hept-5-enoic acid

>  <JCHEM_LOGP>  (147) 
2.646112355999999

>  <JCHEM_MDDR_LIKE_RULE>  (147) 
0

>  <JCHEM_NUMBER_OF_RINGS>  (147) 
2

>  <JCHEM_PHYSIOLOGICAL_CHARGE>  (147) 
-1

>  <JCHEM_PKA>  (147) 
13.94806770908492

>  <JCHEM_PKA_STRONGEST_ACIDIC>  (147) 
4.355293595885344

>  <JCHEM_PKA_STRONGEST_BASIC>  (147) 
-2.872004062695197

>  <JCHEM_POLAR_SURFACE_AREA>  (147) 
107.22

>  <JCHEM_REFRACTIVITY>  (147) 
112.75209999999998

>  <JCHEM_ROTATABLE_BOND_COUNT>  (147) 
11

>  <JCHEM_RULE_OF_FIVE>  (147) 
1

>  <JCHEM_TRADITIONAL_IUPAC>  (147) 
(5Z)-7-[(1R,2R,3R,5S)-2-[(1E,3R)-4-(3-chlorophenoxy)-3-hydroxybut-1-en-1-yl]-3,5-dihydroxycyclopentyl]hept-5-enoic acid

>  <JCHEM_VEBER_RULE>  (147) 
0

>  <MOLECULAR_WEIGHT>  (147) 
424.92

>  <PRODUCTS>  (147) 
nan

>  <SALTS>  (147) 
Cloprostenol sodium

>  <SECONDARY_ACCESSION_NUMBERS>  (147) 
nan

>  <SMILES>  (147) 
[H]\C(CCCC(O)=O)=C(/[H])C[C@@]1([H])[C@@]([H])(O)C[C@@]([H])(O)[C@]1([H])C(\[H])=C(/[H])[C@@]([H])(O)COC1=CC=CC(Cl)=C1

>  <SYNONYMS>  (147) 
nan

>  <ECFP_FP>  (147) 
<rdkit.DataStructs.cDataStructs.ExplicitBitVect object at 0xa26bc90d0>

>  <pki_G>  (147) 
5.650075

>  <pki_D>  (147) 
5.756091

>  <pki_B>  (147) 
5.547117

>  <pki_A>  (147) 
5.132475

>  <SelB>  (147) 
0.102958

>  <SelA>  (147) 
0.517599

>  <SelD>  (147) 
-0.106016

>  <AvgABSel>  (147) 
0.310279

>  <MACCS_FP>  (147) 
[0. 0. 0. 0. 0. 0. 0. 0. 0. 0. 0. 0. 0. 0. 0. 0. 0. 0. 0. 0. 0. 0. 0. 0.
 0. 0. 0. 0. 0. 0. 0. 0. 0. 0. 0. 0. 0. 0. 0. 0. 0. 0. 0. 0. 0. 0. 0. 0.
 0. 0. 0. 0. 0. 1. 0. 0. 0. 0. 0. 0. 0. 0. 0. 0. 0. 0. 0. 0. 0. 0. 0. 0.
 1. 0. 0. 0. 0. 0. 0. 0. 0. 0. 0. 0. 0. 0. 0. 1. 0. 1. 1. 1. 0. 0. 0. 0.
 1. 0. 0. 1. 0. 0. 0. 1. 1. 0. 0. 1. 0. 1. 0. 0. 0. 1. 0. 0. 0. 0. 1. 0.
 0. 0. 0. 1. 0. 0. 1. 1. 1. 1. 0. 1. 1. 0. 1. 0. 0. 0. 0. 1. 1. 0. 0. 1.
 0. 0. 1. 1. 0. 0. 1. 0. 1. 1. 1. 1. 0. 1. 0. 1. 0. 0. 1. 1. 1. 1. 0.]

>  <MACCS_pki_G>  (147) 
5.806769

>  <MACCS_pki_D>  (147) 
5.831485

>  <MACCS_pki_B>  (147) 
5.600472

>  <MACCS_pki_A>  (147) 
5.644735

>  <MACCS_SelB>  (147) 
0.206298

>  <MACCS_SelA>  (147) 
0.162034

>  <MACCS_SelD>  (147) 
-0.024716

>  <MACCSAvgABSel>  (147) 
0.184166

>  <Pharm2D_FP>  (147) 
[0. 0. 0. ... 0. 0. 0.]

>  <Pharm2D_pki_G>  (147) 
6.042467

>  <Pharm2D_pki_D>  (147) 
5.539612

>  <Pharm2D_pki_B>  (147) 
5.317754

>  <Pharm2D_pki_A>  (147) 
4.976556

>  <Pharm2D_SelB>  (147) 
0.724713

>  <Pharm2D_SelA>  (147) 
1.065911

>  <Pharm2D_SelD>  (147) 
0.502855

>  <Pharm2DAvgABSel>  (147) 
0.895312

>  <QED>  (147) 
0.32078

$$$$
DB02309
     RDKit          2D

 24 26  0  0  1  0  0  0  0  0999 V2000
   -1.8505   -3.7149    0.0000 C   0  0  0  0  0  0  0  0  0  0  0  0
   -0.6284   -0.6979    0.0000 C   0  0  0  0  0  0  0  0  0  0  0  0
   -1.1831   -3.2299    0.0000 C   0  0  0  0  0  0  0  0  0  0  0  0
    0.6411   -0.2854    0.0000 C   0  0  0  0  0  0  0  0  0  0  0  0
   -0.3984   -3.4849    0.0000 C   0  0  0  0  0  0  0  0  0  0  0  0
    0.0865   -2.8174    0.0000 C   0  0  0  0  0  0  0  0  0  0  0  0
    0.6411   -1.1104    0.0000 C   0  0  0  0  0  0  0  0  0  0  0  0
    1.3556    0.1271    0.0000 C   0  0  0  0  0  0  0  0  0  0  0  0
   -0.3984   -2.1500    0.0000 C   0  0  0  0  0  0  0  0  0  0  0  0
    2.0701   -1.1104    0.0000 C   0  0  0  0  0  0  0  0  0  0  0  0
   -0.1435   -0.0305    0.0000 N   0  0  0  0  0  0  0  0  0  0  0  0
    1.3556   -1.5229    0.0000 N   0  0  0  0  0  0  0  0  0  0  0  0
    2.0701   -0.2854    0.0000 N   0  0  0  0  0  0  0  0  0  0  0  0
   -0.1435   -1.3654    0.0000 N   0  0  0  0  0  0  0  0  0  0  0  0
   -0.1435   -4.2695    0.0000 O   0  0  0  0  0  0  0  0  0  0  0  0
    0.9115   -2.8174    0.0000 O   0  0  0  0  0  0  0  0  0  0  0  0
    1.3556    0.9521    0.0000 O   0  0  0  0  0  0  0  0  0  0  0  0
    2.7845   -1.5229    0.0000 O   0  0  0  0  0  0  0  0  0  0  0  0
   -3.9391   -4.3492    0.0000 O   0  0  0  0  0  0  0  0  0  0  0  0
   -3.7565   -3.1968    0.0000 O   0  0  0  0  0  0  0  0  0  0  0  0
   -2.7867   -4.5317    0.0000 O   0  0  0  0  0  0  0  0  0  0  0  0
   -2.6042   -3.3793    0.0000 O   0  0  0  0  0  0  0  0  0  0  0  0
   -1.1831   -2.4049    0.0000 O   0  0  0  0  0  0  0  0  0  0  0  0
   -3.2716   -3.8642    0.0000 P   0  0  0  0  0  0  0  0  0  0  0  0
  3  1  1  1
  5  3  1  0
  6  5  1  0
  7  4  2  0
  8  4  1  0
  9  6  1  0
 11  2  2  0
 11  4  1  0
 12  7  1  0
 12 10  2  0
 13  8  2  0
 13 10  1  0
 14  2  1  0
 14  7  1  0
  9 14  1  1
  5 15  1  6
  6 16  1  6
 17  8  1  0
 18 10  1  0
 22  1  1  0
 23  3  1  0
 23  9  1  0
 24 19  1  0
 24 20  1  0
 24 21  2  0
 24 22  1  0
M  CHG  1  11   1
M  END
>  <ALOGPS_LOGP>  (148) 
-0.59

>  <ALOGPS_LOGS>  (148) 
-2.18

>  <ALOGPS_SOLUBILITY>  (148) 
2.65e+00 g/l

>  <DATABASE_NAME>  (148) 
drugbank

>  <DRUGBANK_ID>  (148) 
DB02309

>  <DRUG_GROUPS>  (148) 
experimental

>  <EXACT_MASS>  (148) 
365.049839578

>  <FORMULA>  (148) 
C10H14N4O9P

>  <GENERIC_NAME>  (148) 
5--Monophosphate-9-Beta-D-Ribofuranosyl Xanthine

>  <ID>  (148) 


>  <INCHI_IDENTIFIER>  (148) 
InChI=1S/C10H13N4O9P/c15-5-3(1-22-24(19,20)21)23-9(6(5)16)14-2-11-4-7(14)12-10(18)13-8(4)17/h2-3,5-6,9,15-16H,1H2,(H2,19,20,21)(H2,12,13,17,18)/p+1/t3-,5-,6-,9-/m1/s1

>  <INCHI_KEY>  (148) 
DCTLYFZHFGENCW-UUOKFMHZSA-O

>  <INTERNATIONAL_BRANDS>  (148) 
nan

>  <JCHEM_ACCEPTOR_COUNT>  (148) 
10

>  <JCHEM_ATOM_COUNT>  (148) 
nan

>  <JCHEM_AVERAGE_POLARIZABILITY>  (148) 
30.65847620098529

>  <JCHEM_BIOAVAILABILITY>  (148) 
0

>  <JCHEM_DONOR_COUNT>  (148) 
7

>  <JCHEM_FORMAL_CHARGE>  (148) 
1

>  <JCHEM_GHOSE_FILTER>  (148) 
0

>  <JCHEM_IUPAC>  (148) 
9-[(2R,3R,4S,5R)-3,4-dihydroxy-5-[(phosphonooxy)methyl]oxolan-2-yl]-2,6-dihydroxy-9H-purin-7-ium

>  <JCHEM_LOGP>  (148) 
-1.5589466790327091

>  <JCHEM_MDDR_LIKE_RULE>  (148) 
0

>  <JCHEM_NUMBER_OF_RINGS>  (148) 
3

>  <JCHEM_PHYSIOLOGICAL_CHARGE>  (148) 
-2

>  <JCHEM_PKA>  (148) 
6.250520064792882

>  <JCHEM_PKA_STRONGEST_ACIDIC>  (148) 
1.2546202587877873

>  <JCHEM_PKA_STRONGEST_BASIC>  (148) 
0.04799019372613145

>  <JCHEM_POLAR_SURFACE_AREA>  (148) 
201.75999999999996

>  <JCHEM_REFRACTIVITY>  (148) 
73.5719

>  <JCHEM_ROTATABLE_BOND_COUNT>  (148) 
4

>  <JCHEM_RULE_OF_FIVE>  (148) 
0

>  <JCHEM_TRADITIONAL_IUPAC>  (148) 
9-[(2R,3R,4S,5R)-3,4-dihydroxy-5-[(phosphonooxy)methyl]oxolan-2-yl]-2,6-dihydroxypurin-7-ium

>  <JCHEM_VEBER_RULE>  (148) 
0

>  <MOLECULAR_WEIGHT>  (148) 
365.2133

>  <PRODUCTS>  (148) 
nan

>  <SALTS>  (148) 
nan

>  <SECONDARY_ACCESSION_NUMBERS>  (148) 
EXPT03260

>  <SMILES>  (148) 
[H][C@]1(COP(O)(O)=O)O[C@@]([H])(N2C=[NH+]C3=C2N=C(O)N=C3O)[C@]([H])(O)[C@]1([H])O

>  <SYNONYMS>  (148) 
nan

>  <ECFP_FP>  (148) 
<rdkit.DataStructs.cDataStructs.ExplicitBitVect object at 0xa2671a5d0>

>  <pki_G>  (148) 
5.643271

>  <pki_D>  (148) 
5.725425

>  <pki_B>  (148) 
5.358505

>  <pki_A>  (148) 
5.196688

>  <SelB>  (148) 
0.284766

>  <SelA>  (148) 
0.446584

>  <SelD>  (148) 
-0.082154

>  <AvgABSel>  (148) 
0.365675

>  <MACCS_FP>  (148) 
[0. 0. 0. 0. 0. 0. 0. 0. 0. 0. 0. 0. 0. 0. 0. 0. 0. 0. 0. 0. 0. 0. 0. 0.
 0. 0. 0. 0. 0. 1. 0. 0. 0. 0. 0. 0. 0. 1. 1. 0. 0. 0. 0. 1. 0. 0. 0. 0.
 1. 1. 0. 0. 0. 1. 1. 0. 0. 1. 0. 0. 0. 0. 1. 0. 0. 1. 0. 0. 0. 1. 0. 0.
 1. 0. 0. 1. 0. 1. 0. 1. 1. 0. 0. 1. 0. 1. 0. 0. 0. 1. 1. 1. 1. 0. 0. 1.
 1. 1. 1. 0. 0. 1. 1. 0. 0. 1. 1. 0. 0. 1. 1. 0. 1. 1. 0. 0. 0. 1. 0. 0.
 1. 1. 1. 0. 1. 1. 1. 1. 0. 0. 1. 1. 1. 1. 0. 0. 0. 1. 0. 1. 1. 0. 1. 1.
 0. 0. 1. 0. 1. 0. 1. 1. 1. 1. 0. 1. 1. 1. 1. 1. 0. 1. 1. 1. 1. 1. 0.]

>  <MACCS_pki_G>  (148) 
6.392242

>  <MACCS_pki_D>  (148) 
5.840321

>  <MACCS_pki_B>  (148) 
5.680808

>  <MACCS_pki_A>  (148) 
5.600444

>  <MACCS_SelB>  (148) 
0.711433

>  <MACCS_SelA>  (148) 
0.791797

>  <MACCS_SelD>  (148) 
0.551921

>  <MACCSAvgABSel>  (148) 
0.751615

>  <Pharm2D_FP>  (148) 
[0. 0. 0. ... 0. 0. 0.]

>  <Pharm2D_pki_G>  (148) 
6.086943

>  <Pharm2D_pki_D>  (148) 
6.165021

>  <Pharm2D_pki_B>  (148) 
5.566224

>  <Pharm2D_pki_A>  (148) 
5.817163

>  <Pharm2D_SelB>  (148) 
0.520719

>  <Pharm2D_SelA>  (148) 
0.269779

>  <Pharm2D_SelD>  (148) 
-0.078078

>  <Pharm2DAvgABSel>  (148) 
0.395249

>  <QED>  (148) 
0.309716

$$$$
DB07569
     RDKit          2D

 24 25  0  0  0  0  0  0  0  0999 V2000
  -10.8536   -1.1839    0.0000 O   0  0  0  0  0  0  0  0  0  0  0  0
  -10.1391   -1.5964    0.0000 C   0  0  0  0  0  0  0  0  0  0  0  0
  -10.1391   -2.4214    0.0000 C   0  0  0  0  0  0  0  0  0  0  0  0
   -9.4246   -2.8339    0.0000 C   0  0  0  0  0  0  0  0  0  0  0  0
   -9.4246   -3.6589    0.0000 C   0  0  0  0  0  0  0  0  0  0  0  0
  -10.1391   -4.0714    0.0000 C   0  0  0  0  0  0  0  0  0  0  0  0
  -10.1391   -4.8964    0.0000 C   0  0  0  0  0  0  0  0  0  0  0  0
  -10.8536   -3.6589    0.0000 C   0  0  0  0  0  0  0  0  0  0  0  0
  -10.8536   -2.8339    0.0000 C   0  0  0  0  0  0  0  0  0  0  0  0
   -9.4246   -1.1839    0.0000 N   0  0  0  0  0  0  0  0  0  0  0  0
   -9.4246   -0.3589    0.0000 C   0  0  0  0  0  0  0  0  0  0  0  0
  -10.1391    0.0536    0.0000 C   0  0  0  0  0  0  0  0  0  0  0  0
  -10.1391    0.8786    0.0000 C   0  0  0  0  0  0  0  0  0  0  0  0
  -10.8536    1.2911    0.0000 S   0  0  0  0  0  0  0  0  0  0  0  0
  -10.8536    2.1161    0.0000 C   0  0  0  0  0  0  0  0  0  0  0  0
   -8.7102    0.0536    0.0000 C   0  0  0  0  0  0  0  0  0  0  0  0
   -7.9957   -0.3589    0.0000 O   0  0  0  0  0  0  0  0  0  0  0  0
   -8.7102    0.8786    0.0000 N   0  0  0  0  0  0  0  0  0  0  0  0
   -7.9957    1.2911    0.0000 C   0  0  0  0  0  0  0  0  0  0  0  0
   -7.9957    2.1161    0.0000 C   0  0  0  0  0  0  0  0  0  0  0  0
   -7.2812    2.5286    0.0000 C   0  0  0  0  0  0  0  0  0  0  0  0
   -6.5667    2.1161    0.0000 N   0  0  0  0  0  0  0  0  0  0  0  0
   -6.5667    1.2911    0.0000 C   0  0  0  0  0  0  0  0  0  0  0  0
   -7.2812    0.8786    0.0000 C   0  0  0  0  0  0  0  0  0  0  0  0
  1  2  2  0
  3  2  1  6
  2 10  1  0
  3  4  1  0
  3  9  1  0
  4  5  1  0
  5  6  1  0
  6  7  1  6
  6  8  1  0
  8  9  1  0
 11 10  1  0
 11 12  1  1
 11 16  1  0
 12 13  1  0
 13 14  1  0
 14 15  1  0
 16 17  2  0
 16 18  1  0
 18 19  1  0
 19 20  2  0
 19 24  1  0
 20 21  1  0
 21 22  2  0
 22 23  1  0
 23 24  2  0
M  END
>  <ALOGPS_LOGP>  (149) 
2.15

>  <ALOGPS_LOGS>  (149) 
-4.64

>  <ALOGPS_SOLUBILITY>  (149) 
7.98e-03 g/l

>  <DATABASE_NAME>  (149) 
drugbank

>  <DRUGBANK_ID>  (149) 
DB07569

>  <DRUG_GROUPS>  (149) 
experimental

>  <EXACT_MASS>  (149) 
349.182397813

>  <FORMULA>  (149) 
C18H27N3O2S

>  <GENERIC_NAME>  (149) 
CIS-4-METHYL-N-[(1S)-3-(METHYLSULFANYL)-1-(PYRIDIN-4-YLCARBAMOYL)PROPYL]CYCLOHEXANECARBOXAMIDE

>  <ID>  (149) 
CM9

>  <INCHI_IDENTIFIER>  (149) 
InChI=1S/C18H27N3O2S/c1-13-3-5-14(6-4-13)17(22)21-16(9-12-24-2)18(23)20-15-7-10-19-11-8-15/h7-8,10-11,13-14,16H,3-6,9,12H2,1-2H3,(H,21,22)(H,19,20,23)/t13-,14+,16-/m0/s1

>  <INCHI_KEY>  (149) 
OCZKGSPGDOPDAI-LZWOXQAQSA-N

>  <INTERNATIONAL_BRANDS>  (149) 
nan

>  <JCHEM_ACCEPTOR_COUNT>  (149) 
3

>  <JCHEM_ATOM_COUNT>  (149) 
nan

>  <JCHEM_AVERAGE_POLARIZABILITY>  (149) 
39.07876349329747

>  <JCHEM_BIOAVAILABILITY>  (149) 
1

>  <JCHEM_DONOR_COUNT>  (149) 
2

>  <JCHEM_FORMAL_CHARGE>  (149) 
0

>  <JCHEM_GHOSE_FILTER>  (149) 
1

>  <JCHEM_IUPAC>  (149) 
(2S)-4-(methylsulfanyl)-N-(pyridin-4-yl)-2-{[(1s,4s)-4-methylcyclohexyl]formamido}butanamide

>  <JCHEM_LOGP>  (149) 
2.508714451333334

>  <JCHEM_MDDR_LIKE_RULE>  (149) 
0

>  <JCHEM_NUMBER_OF_RINGS>  (149) 
2

>  <JCHEM_PHYSIOLOGICAL_CHARGE>  (149) 
0

>  <JCHEM_PKA>  (149) 
13.181309137595047

>  <JCHEM_PKA_STRONGEST_ACIDIC>  (149) 
12.396322696241679

>  <JCHEM_PKA_STRONGEST_BASIC>  (149) 
5.631566185662885

>  <JCHEM_POLAR_SURFACE_AREA>  (149) 
71.09

>  <JCHEM_REFRACTIVITY>  (149) 
98.90099999999998

>  <JCHEM_ROTATABLE_BOND_COUNT>  (149) 
7

>  <JCHEM_RULE_OF_FIVE>  (149) 
1

>  <JCHEM_TRADITIONAL_IUPAC>  (149) 
(2S)-4-(methylsulfanyl)-N-(pyridin-4-yl)-2-{[(1s,4s)-4-methylcyclohexyl]formamido}butanamide

>  <JCHEM_VEBER_RULE>  (149) 
0

>  <MOLECULAR_WEIGHT>  (149) 
349.491

>  <PRODUCTS>  (149) 
nan

>  <SALTS>  (149) 
nan

>  <SECONDARY_ACCESSION_NUMBERS>  (149) 
nan

>  <SMILES>  (149) 
[H][C@@](CCSC)(NC(=O)[C@]1([H])CC[C@]([H])(C)CC1)C(=O)NC1=CC=NC=C1

>  <SYNONYMS>  (149) 
nan

>  <ECFP_FP>  (149) 
<rdkit.DataStructs.cDataStructs.ExplicitBitVect object at 0xa26a99580>

>  <pki_G>  (149) 
5.638446

>  <pki_D>  (149) 
5.598869

>  <pki_B>  (149) 
5.337186

>  <pki_A>  (149) 
5.64375

>  <SelB>  (149) 
0.30126

>  <SelA>  (149) 
-0.005304

>  <SelD>  (149) 
0.039577

>  <AvgABSel>  (149) 
0.147978

>  <MACCS_FP>  (149) 
[0. 0. 0. 0. 0. 0. 0. 0. 0. 0. 0. 0. 0. 0. 0. 0. 0. 0. 0. 0. 0. 0. 0. 0.
 0. 0. 0. 0. 0. 0. 0. 0. 0. 0. 0. 0. 0. 0. 0. 0. 0. 0. 0. 0. 0. 0. 0. 0.
 0. 0. 0. 0. 0. 0. 1. 0. 0. 0. 0. 0. 0. 0. 0. 0. 0. 1. 0. 0. 0. 0. 0. 0.
 0. 0. 0. 0. 0. 0. 0. 1. 1. 0. 0. 0. 0. 0. 1. 0. 1. 0. 1. 1. 1. 1. 0. 1.
 0. 0. 1. 0. 0. 0. 0. 0. 1. 0. 0. 0. 0. 0. 1. 1. 0. 0. 0. 1. 1. 1. 1. 0.
 0. 1. 0. 0. 0. 0. 0. 0. 1. 1. 0. 1. 0. 1. 0. 1. 1. 1. 0. 0. 0. 0. 1. 0.
 0. 1. 0. 1. 0. 1. 0. 1. 0. 1. 1. 1. 1. 0. 1. 1. 1. 1. 1. 1. 1. 1. 0.]

>  <MACCS_pki_G>  (149) 
6.207789

>  <MACCS_pki_D>  (149) 
5.909393

>  <MACCS_pki_B>  (149) 
5.458464

>  <MACCS_pki_A>  (149) 
5.852218

>  <MACCS_SelB>  (149) 
0.749325

>  <MACCS_SelA>  (149) 
0.355571

>  <MACCS_SelD>  (149) 
0.298396

>  <MACCSAvgABSel>  (149) 
0.552448

>  <Pharm2D_FP>  (149) 
[0. 0. 0. ... 0. 0. 0.]

>  <Pharm2D_pki_G>  (149) 
6.020745

>  <Pharm2D_pki_D>  (149) 
5.413306

>  <Pharm2D_pki_B>  (149) 
5.346598

>  <Pharm2D_pki_A>  (149) 
4.846609

>  <Pharm2D_SelB>  (149) 
0.674147

>  <Pharm2D_SelA>  (149) 
1.174135

>  <Pharm2D_SelD>  (149) 
0.607438

>  <Pharm2DAvgABSel>  (149) 
0.924141

>  <QED>  (149) 
0.793447

$$$$
DB08347
     RDKit          2D

 21 22  0  0  1  0  0  0  0  0999 V2000
    4.5080   -0.5635    0.0000 O   0  0  0  0  0  0  0  0  0  0  0  0
    4.5080    1.0865    0.0000 O   0  0  0  0  0  0  0  0  0  0  0  0
    3.0790    1.9116    0.0000 N   0  0  0  0  0  0  0  0  0  0  0  0
    6.0032   -2.8775    0.0000 N   0  0  0  0  0  0  0  0  0  0  0  0
    8.1347   -2.2135    0.0000 N   0  0  0  0  0  0  0  0  0  0  0  0
    2.3645    2.3241    0.0000 C   0  0  0  0  0  0  0  0  0  0  0  0
    3.0790    1.0865    0.0000 C   0  0  0  0  0  0  0  0  0  0  0  0
    3.7935    0.6740    0.0000 C   0  0  0  0  0  0  0  0  0  0  0  0
    1.6500    2.7366    0.0000 C   0  0  0  0  0  0  0  0  0  0  0  0
    2.7770    3.0385    0.0000 C   0  0  0  0  0  0  0  0  0  0  0  0
    1.9520    1.6096    0.0000 C   0  0  0  0  0  0  0  0  0  0  0  0
    3.7935   -0.1510    0.0000 C   0  0  0  0  0  0  0  0  0  0  0  0
    5.2224   -1.8010    0.0000 C   0  0  0  0  0  0  0  0  0  0  0  0
    4.5080   -1.3885    0.0000 C   0  0  0  0  0  0  0  0  0  0  0  0
    6.0032   -1.5496    0.0000 C   0  0  0  0  0  0  0  0  0  0  0  0
    5.2224   -2.6260    0.0000 C   0  0  0  0  0  0  0  0  0  0  0  0
    3.7935   -1.8010    0.0000 C   0  0  0  0  0  0  0  0  0  0  0  0
    6.4846   -2.2135    0.0000 C   0  0  0  0  0  0  0  0  0  0  0  0
    4.5080   -3.0385    0.0000 C   0  0  0  0  0  0  0  0  0  0  0  0
    3.7935   -2.6260    0.0000 C   0  0  0  0  0  0  0  0  0  0  0  0
    7.3097   -2.2135    0.0000 C   0  0  0  0  0  0  0  0  0  0  0  0
  1 12  1  0
  1 14  1  0
  8  2  1  6
  3  6  1  0
  3  7  1  0
  4 16  1  0
  4 18  2  0
  5 21  3  0
  6  9  1  0
  6 10  1  0
  6 11  1  0
  7  8  1  0
  8 12  1  0
 13 14  1  0
 13 15  1  0
 13 16  2  0
 14 17  2  0
 15 18  1  0
 16 19  1  0
 17 20  1  0
 18 21  1  0
 19 20  2  0
M  END
>  <ALOGPS_LOGP>  (150) 
1.51

>  <ALOGPS_LOGS>  (150) 
-3.27

>  <ALOGPS_SOLUBILITY>  (150) 
1.56e-01 g/l

>  <DATABASE_NAME>  (150) 
drugbank

>  <DRUGBANK_ID>  (150) 
DB08347

>  <DRUG_GROUPS>  (150) 
experimental

>  <EXACT_MASS>  (150) 
287.163376931

>  <FORMULA>  (150) 
C16H21N3O2

>  <GENERIC_NAME>  (150) 
4-{[(2S)-3-(tert-butylamino)-2-hydroxypropyl]oxy}-3H-indole-2-carbonitrile

>  <ID>  (150) 
46937143

>  <INCHI_IDENTIFIER>  (150) 
InChI=1S/C16H21N3O2/c1-16(2,3)18-9-12(20)10-21-15-6-4-5-14-13(15)7-11(8-17)19-14/h4-6,12,18,20H,7,9-10H2,1-3H3/t12-/m0/s1

>  <INCHI_KEY>  (150) 
CQEFAUFOQSCRMZ-LBPRGKRZSA-N

>  <INTERNATIONAL_BRANDS>  (150) 
nan

>  <JCHEM_ACCEPTOR_COUNT>  (150) 
5

>  <JCHEM_ATOM_COUNT>  (150) 
nan

>  <JCHEM_AVERAGE_POLARIZABILITY>  (150) 
32.114827107400174

>  <JCHEM_BIOAVAILABILITY>  (150) 
1

>  <JCHEM_DONOR_COUNT>  (150) 
2

>  <JCHEM_FORMAL_CHARGE>  (150) 
0

>  <JCHEM_GHOSE_FILTER>  (150) 
1

>  <JCHEM_IUPAC>  (150) 
4-[(2S)-3-(tert-butylamino)-2-hydroxypropoxy]-3H-indole-2-carbonitrile

>  <JCHEM_LOGP>  (150) 
2.0790017641374514

>  <JCHEM_MDDR_LIKE_RULE>  (150) 
0

>  <JCHEM_NUMBER_OF_RINGS>  (150) 
2

>  <JCHEM_PHYSIOLOGICAL_CHARGE>  (150) 
1

>  <JCHEM_PKA>  (150) 
14.08895630412026

>  <JCHEM_PKA_STRONGEST_ACIDIC>  (150) 
11.542413646550129

>  <JCHEM_PKA_STRONGEST_BASIC>  (150) 
9.752318605761293

>  <JCHEM_POLAR_SURFACE_AREA>  (150) 
77.64

>  <JCHEM_REFRACTIVITY>  (150) 
83.33420000000001

>  <JCHEM_ROTATABLE_BOND_COUNT>  (150) 
6

>  <JCHEM_RULE_OF_FIVE>  (150) 
1

>  <JCHEM_TRADITIONAL_IUPAC>  (150) 
4-[(2S)-3-(tert-butylamino)-2-hydroxypropoxy]-3H-indole-2-carbonitrile

>  <JCHEM_VEBER_RULE>  (150) 
0

>  <MOLECULAR_WEIGHT>  (150) 
287.3568

>  <PRODUCTS>  (150) 
nan

>  <SALTS>  (150) 
nan

>  <SECONDARY_ACCESSION_NUMBERS>  (150) 
nan

>  <SMILES>  (150) 
CC(C)(C)NC[C@H](O)COC1=CC=CC2=C1CC(=N2)C#N

>  <SYNONYMS>  (150) 
nan

>  <ECFP_FP>  (150) 
<rdkit.DataStructs.cDataStructs.ExplicitBitVect object at 0xa26b14490>

>  <pki_G>  (150) 
5.630713

>  <pki_D>  (150) 
5.716147

>  <pki_B>  (150) 
5.538658

>  <pki_A>  (150) 
5.425888

>  <SelB>  (150) 
0.092054

>  <SelA>  (150) 
0.204825

>  <SelD>  (150) 
-0.085434

>  <AvgABSel>  (150) 
0.14844

>  <MACCS_FP>  (150) 
[0. 0. 0. 0. 0. 0. 0. 0. 0. 0. 0. 0. 0. 0. 0. 0. 0. 0. 0. 0. 0. 0. 0. 0.
 0. 0. 0. 0. 0. 0. 0. 0. 0. 0. 0. 0. 0. 0. 0. 0. 0. 1. 0. 0. 0. 0. 0. 0.
 0. 0. 0. 0. 0. 0. 1. 0. 0. 0. 0. 0. 0. 0. 0. 0. 0. 0. 1. 0. 0. 0. 0. 0.
 1. 0. 1. 0. 0. 0. 1. 1. 0. 0. 1. 1. 0. 0. 0. 0. 0. 0. 1. 0. 0. 0. 0. 1.
 1. 1. 0. 0. 1. 1. 0. 0. 1. 1. 0. 0. 0. 1. 0. 1. 1. 1. 0. 0. 1. 0. 0. 1.
 0. 1. 0. 0. 0. 0. 1. 1. 1. 0. 0. 1. 1. 0. 0. 1. 0. 1. 1. 1. 0. 1. 1. 1.
 1. 0. 0. 0. 0. 1. 0. 1. 1. 1. 0. 1. 1. 1. 1. 1. 1. 1. 1. 1. 1. 1. 0.]

>  <MACCS_pki_G>  (150) 
6.206435

>  <MACCS_pki_D>  (150) 
5.888881

>  <MACCS_pki_B>  (150) 
5.957669

>  <MACCS_pki_A>  (150) 
6.057895

>  <MACCS_SelB>  (150) 
0.248766

>  <MACCS_SelA>  (150) 
0.14854

>  <MACCS_SelD>  (150) 
0.317554

>  <MACCSAvgABSel>  (150) 
0.198653

>  <Pharm2D_FP>  (150) 
[0. 0. 0. ... 0. 0. 0.]

>  <Pharm2D_pki_G>  (150) 
6.160692

>  <Pharm2D_pki_D>  (150) 
5.534945

>  <Pharm2D_pki_B>  (150) 
5.403426

>  <Pharm2D_pki_A>  (150) 
5.029182

>  <Pharm2D_SelB>  (150) 
0.757266

>  <Pharm2D_SelA>  (150) 
1.13151

>  <Pharm2D_SelD>  (150) 
0.625747

>  <Pharm2DAvgABSel>  (150) 
0.944388

>  <QED>  (150) 
0.867609

$$$$
DB04653
     RDKit          2D

 40 41  0  0  1  0  0  0  0  0999 V2000
   -1.4289    5.7750    0.0000 C   0  0  0  0  0  0  0  0  0  0  0  0
    0.0000    5.7750    0.0000 C   0  0  0  0  0  0  0  0  0  0  0  0
    2.8579    6.6000    0.0000 C   0  0  0  0  0  0  0  0  0  0  0  0
    3.5724    5.3625    0.0000 C   0  0  0  0  0  0  0  0  0  0  0  0
    5.7158    0.8250    0.0000 C   0  0  0  0  0  0  0  0  0  0  0  0
    5.7158    1.6500    0.0000 C   0  0  0  0  0  0  0  0  0  0  0  0
    5.0013    0.4125    0.0000 C   0  0  0  0  0  0  0  0  0  0  0  0
    5.0013    2.0625    0.0000 C   0  0  0  0  0  0  0  0  0  0  0  0
    4.2868    0.8250    0.0000 C   0  0  0  0  0  0  0  0  0  0  0  0
   -2.1434    0.4125    0.0000 C   0  0  0  0  0  0  0  0  0  0  0  0
   -0.7145    0.4125    0.0000 C   0  0  0  0  0  0  0  0  0  0  0  0
   -2.1434   -0.4125    0.0000 C   0  0  0  0  0  0  0  0  0  0  0  0
   -0.7145   -0.4125    0.0000 C   0  0  0  0  0  0  0  0  0  0  0  0
   -0.7145    4.5375    0.0000 C   0  0  0  0  0  0  0  0  0  0  0  0
    2.1434    5.3625    0.0000 C   0  0  0  0  0  0  0  0  0  0  0  0
   -1.4289    1.6500    0.0000 C   0  0  0  0  0  0  0  0  0  0  0  0
    0.7145    2.0625    0.0000 C   0  0  0  0  0  0  0  0  0  0  0  0
    3.5724    2.0625    0.0000 C   0  0  0  0  0  0  0  0  0  0  0  0
   -0.7145    5.3625    0.0000 C   0  0  0  0  0  0  0  0  0  0  0  0
    2.8579    5.7750    0.0000 C   0  0  0  0  0  0  0  0  0  0  0  0
   -1.4289    0.8250    0.0000 C   0  0  0  0  0  0  0  0  0  0  0  0
    4.2868    1.6500    0.0000 C   0  0  0  0  0  0  0  0  0  0  0  0
   -1.4289   -0.8250    0.0000 C   0  0  0  0  0  0  0  0  0  0  0  0
   -0.7145    2.0625    0.0000 C   0  0  0  0  0  0  0  0  0  0  0  0
    0.0000    4.1250    0.0000 C   0  0  0  0  0  0  0  0  0  0  0  0
    2.1434    4.5375    0.0000 C   0  0  0  0  0  0  0  0  0  0  0  0
    0.0000    1.6500    0.0000 C   0  0  0  0  0  0  0  0  0  0  0  0
    0.0000    3.3000    0.0000 C   0  0  0  0  0  0  0  0  0  0  0  0
    1.4289    4.1250    0.0000 C   0  0  0  0  0  0  0  0  0  0  0  0
    2.8579    3.3000    0.0000 C   0  0  0  0  0  0  0  0  0  0  0  0
    1.4289    1.6500    0.0000 F   0  0  0  0  0  0  0  0  0  0  0  0
   -0.7145    2.8875    0.0000 N   0  0  0  0  0  0  0  0  0  0  0  0
    0.7145    4.5375    0.0000 N   0  0  0  0  0  0  0  0  0  0  0  0
    2.8579    4.1250    0.0000 N   0  0  0  0  0  0  0  0  0  0  0  0
   -1.4289   -1.6500    0.0000 O   0  0  0  0  0  0  0  0  0  0  0  0
    0.0000    0.8250    0.0000 O   0  0  0  0  0  0  0  0  0  0  0  0
    0.7145    2.8875    0.0000 O   0  0  0  0  0  0  0  0  0  0  0  0
    1.4289    3.3000    0.0000 O   0  0  0  0  0  0  0  0  0  0  0  0
    2.1434    2.8875    0.0000 O   0  0  0  0  0  0  0  0  0  0  0  0
    3.5724    2.8875    0.0000 O   0  0  0  0  0  0  0  0  0  0  0  0
  6  5  2  0
  7  5  1  0
  8  6  1  0
  9  7  2  0
 12 10  2  0
 13 11  1  0
 19  1  1  0
 19  2  1  0
 19 14  1  0
 20  3  1  0
 20  4  1  0
 20 15  1  0
 21 10  1  0
 21 11  2  0
 21 16  1  0
 22  8  2  0
 22  9  1  0
 22 18  1  0
 23 12  1  0
 23 13  2  0
 24 16  1  6
 25 14  1  6
 26 15  1  6
 27 17  1  0
 27 24  1  0
 28 25  1  0
 29 26  1  0
 31 17  1  0
 24 32  1  0
 32 28  2  3
 25 33  1  0
 33 29  2  3
 26 34  1  0
 34 30  2  3
 35 23  1  0
 36 27  2  0
 28 37  1  0
 29 38  1  0
 30 39  1  0
 40 18  1  0
 40 30  1  0
M  END
>  <ALOGPS_LOGP>  (151) 
3.79

>  <ALOGPS_LOGS>  (151) 
-5.19

>  <ALOGPS_SOLUBILITY>  (151) 
3.58e-03 g/l

>  <DATABASE_NAME>  (151) 
drugbank

>  <DRUGBANK_ID>  (151) 
DB04653

>  <DRUG_GROUPS>  (151) 
experimental

>  <EXACT_MASS>  (151) 
557.290114232

>  <FORMULA>  (151) 
C30H40FN3O6

>  <GENERIC_NAME>  (151) 
CBZ-LEU-LEU-TYR-CH2F

>  <ID>  (151) 


>  <INCHI_IDENTIFIER>  (151) 
InChI=1S/C30H40FN3O6/c1-19(2)14-25(28(37)32-24(27(36)17-31)16-21-10-12-23(35)13-11-21)33-29(38)26(15-20(3)4)34-30(39)40-18-22-8-6-5-7-9-22/h5-13,19-20,24-26,35H,14-18H2,1-4H3,(H,32,37)(H,33,38)(H,34,39)/t24-,25-,26-/m0/s1

>  <INCHI_KEY>  (151) 
JCRSHQCFRMCMOC-GSDHBNRESA-N

>  <INTERNATIONAL_BRANDS>  (151) 
nan

>  <JCHEM_ACCEPTOR_COUNT>  (151) 
9

>  <JCHEM_ATOM_COUNT>  (151) 
nan

>  <JCHEM_AVERAGE_POLARIZABILITY>  (151) 
59.29649414165948

>  <JCHEM_BIOAVAILABILITY>  (151) 
0

>  <JCHEM_DONOR_COUNT>  (151) 
4

>  <JCHEM_FORMAL_CHARGE>  (151) 
0

>  <JCHEM_GHOSE_FILTER>  (151) 
0

>  <JCHEM_IUPAC>  (151) 
(2S)-2-{[(benzyloxy)(hydroxy)methylidene]amino}-N-[(1S)-1-{[(2S)-4-fluoro-1-(4-hydroxyphenyl)-3-oxobutan-2-yl]-C-hydroxycarbonimidoyl}-3-methylbutyl]-4-methylpentanimidic acid

>  <JCHEM_LOGP>  (151) 
7.201057870666665

>  <JCHEM_MDDR_LIKE_RULE>  (151) 
0

>  <JCHEM_NUMBER_OF_RINGS>  (151) 
2

>  <JCHEM_PHYSIOLOGICAL_CHARGE>  (151) 
1

>  <JCHEM_PKA>  (151) 
5.84656248773499

>  <JCHEM_PKA_STRONGEST_ACIDIC>  (151) 
5.165259769126734

>  <JCHEM_PKA_STRONGEST_BASIC>  (151) 
1.5866421780105908

>  <JCHEM_POLAR_SURFACE_AREA>  (151) 
144.29999999999998

>  <JCHEM_REFRACTIVITY>  (151) 
150.1144

>  <JCHEM_ROTATABLE_BOND_COUNT>  (151) 
16

>  <JCHEM_RULE_OF_FIVE>  (151) 
0

>  <JCHEM_TRADITIONAL_IUPAC>  (151) 
(2S)-2-{[(benzyloxy)(hydroxy)methylidene]amino}-N-[(1S)-1-{[(2S)-4-fluoro-1-(4-hydroxyphenyl)-3-oxobutan-2-yl]-C-hydroxycarbonimidoyl}-3-methylbutyl]-4-methylpentanimidic acid

>  <JCHEM_VEBER_RULE>  (151) 
0

>  <MOLECULAR_WEIGHT>  (151) 
557.6535

>  <PRODUCTS>  (151) 
nan

>  <SALTS>  (151) 
nan

>  <SECONDARY_ACCESSION_NUMBERS>  (151) 
nan

>  <SMILES>  (151) 
[H][C@@](CC(C)C)(N=C(O)OCC1=CC=CC=C1)C(O)=N[C@@]([H])(CC(C)C)C(O)=N[C@@]([H])(CC1=CC=C(O)C=C1)C(=O)CF

>  <SYNONYMS>  (151) 
nan

>  <ECFP_FP>  (151) 
<rdkit.DataStructs.cDataStructs.ExplicitBitVect object at 0xa2699b9e0>

>  <pki_G>  (151) 
5.629146

>  <pki_D>  (151) 
5.783093

>  <pki_B>  (151) 
5.593125

>  <pki_A>  (151) 
6.003349

>  <SelB>  (151) 
0.036021

>  <SelA>  (151) 
-0.374202

>  <SelD>  (151) 
-0.153946

>  <AvgABSel>  (151) 
-0.169091

>  <MACCS_FP>  (151) 
[0. 0. 0. 0. 0. 0. 0. 0. 0. 0. 0. 0. 0. 0. 0. 0. 0. 0. 0. 0. 0. 0. 0. 1.
 0. 0. 0. 0. 0. 0. 0. 0. 0. 0. 0. 0. 0. 0. 0. 0. 0. 0. 1. 0. 0. 0. 0. 0.
 0. 0. 0. 0. 0. 0. 0. 0. 0. 0. 0. 0. 0. 0. 0. 0. 0. 0. 0. 0. 0. 0. 0. 0.
 0. 0. 1. 0. 0. 0. 1. 1. 0. 0. 0. 0. 0. 0. 0. 0. 0. 0. 1. 1. 1. 0. 0. 1.
 0. 0. 0. 0. 0. 0. 0. 0. 0. 0. 1. 0. 0. 1. 1. 1. 0. 1. 0. 1. 0. 1. 0. 1.
 0. 0. 0. 1. 0. 1. 1. 1. 0. 1. 0. 1. 1. 0. 1. 0. 0. 0. 1. 1. 1. 1. 1. 1.
 0. 1. 1. 0. 0. 1. 0. 0. 1. 1. 1. 1. 1. 1. 1. 1. 1. 1. 1. 1. 1. 1. 0.]

>  <MACCS_pki_G>  (151) 
5.67745

>  <MACCS_pki_D>  (151) 
5.859058

>  <MACCS_pki_B>  (151) 
5.54223

>  <MACCS_pki_A>  (151) 
6.206417

>  <MACCS_SelB>  (151) 
0.13522

>  <MACCS_SelA>  (151) 
-0.528967

>  <MACCS_SelD>  (151) 
-0.181609

>  <MACCSAvgABSel>  (151) 
-0.196874

>  <Pharm2D_FP>  (151) 
[0. 0. 0. ... 0. 0. 0.]

>  <Pharm2D_pki_G>  (151) 
6.498138

>  <Pharm2D_pki_D>  (151) 
5.732534

>  <Pharm2D_pki_B>  (151) 
5.559737

>  <Pharm2D_pki_A>  (151) 
5.324024

>  <Pharm2D_SelB>  (151) 
0.938402

>  <Pharm2D_SelA>  (151) 
1.174114

>  <Pharm2D_SelD>  (151) 
0.765605

>  <Pharm2DAvgABSel>  (151) 
1.056258

>  <QED>  (151) 
0.16295

$$$$
DB04865
     RDKit          2D

 39 43  0  0  1  0  0  0  0  0999 V2000
    1.2184   -4.3069    0.0000 C   0  0  0  0  0  0  0  0  0  0  0  0
    1.8985   -5.2548    0.0000 C   0  0  0  0  0  0  0  0  0  0  0  0
    1.6504   -2.6739    0.0000 C   0  0  0  0  0  0  0  0  0  0  0  0
    5.8117   -4.3385    0.0000 C   0  0  0  0  0  0  0  0  0  0  0  0
    3.3695   -3.9367    0.0000 C   0  0  0  0  0  0  0  0  0  0  0  0
    1.5094   -0.4307    0.0000 C   0  0  0  0  0  0  0  0  0  0  0  0
    3.8861    1.0846    0.0000 C   0  0  0  0  0  0  0  0  0  0  0  0
    2.8465   -4.5747    0.0000 C   0  0  0  0  0  0  0  0  0  0  0  0
    2.0536   -0.9204    0.0000 C   0  0  0  0  0  0  0  0  0  0  0  0
    4.1835   -4.0706    0.0000 C   0  0  0  0  0  0  0  0  0  0  0  0
    1.7748    0.3504    0.0000 C   0  0  0  0  0  0  0  0  0  0  0  0
    3.0635    1.0217    0.0000 C   0  0  0  0  0  0  0  0  0  0  0  0
    5.2156    0.7832    0.0000 C   0  0  0  0  0  0  0  0  0  0  0  0
    4.9722   -0.8488    0.0000 C   0  0  0  0  0  0  0  0  0  0  0  0
    2.3211   -1.0867    0.0000 C   0  0  0  0  0  0  0  0  0  0  0  0
    5.2296   -2.7946    0.0000 C   0  0  0  0  0  0  0  0  0  0  0  0
    7.0562   -0.3255    0.0000 C   0  0  0  0  0  0  0  0  0  0  0  0
    4.4481    0.4806    0.0000 C   0  0  0  0  0  0  0  0  0  0  0  0
    4.3264   -0.3353    0.0000 C   0  0  0  0  0  0  0  0  0  0  0  0
    5.8614    0.2698    0.0000 C   0  0  0  0  0  0  0  0  0  0  0  0
    5.7397   -0.5462    0.0000 C   0  0  0  0  0  0  0  0  0  0  0  0
    2.7663   -1.7813    0.0000 C   0  0  0  0  0  0  0  0  0  0  0  0
    6.0436   -2.9285    0.0000 C   0  0  0  0  0  0  0  0  0  0  0  0
    3.6125   -0.7489    0.0000 C   0  0  0  0  0  0  0  0  0  0  0  0
    3.5644   -1.5725    0.0000 C   0  0  0  0  0  0  0  0  0  0  0  0
    4.0685   -2.9096    0.0000 C   0  0  0  0  0  0  0  0  0  0  0  0
    2.0324   -4.4408    0.0000 C   0  0  0  0  0  0  0  0  0  0  0  0
    2.8441   -0.4487    0.0000 C   0  0  0  0  0  0  0  0  0  0  0  0
    4.7066   -3.4326    0.0000 C   0  0  0  0  0  0  0  0  0  0  0  0
    2.5998    0.3393    0.0000 N   0  0  0  0  0  0  0  0  0  0  0  0
    6.5666   -2.2905    0.0000 O   0  0  0  0  0  0  0  0  0  0  0  0
    3.2966   -3.2006    0.0000 O   0  0  0  0  0  0  0  0  0  0  0  0
    2.1663   -3.6267    0.0000 O   0  0  0  0  0  0  0  0  0  0  0  0
    5.3446   -3.9556    0.0000 O   0  0  0  0  0  0  0  0  0  0  0  0
    2.4660   -2.5497    0.0000 O   0  0  0  0  0  0  0  0  0  0  0  0
    6.3347   -3.7005    0.0000 O   0  0  0  0  0  0  0  0  0  0  0  0
    6.6751    0.4061    0.0000 O   0  0  0  0  0  0  0  0  0  0  0  0
    6.4781   -0.9141    0.0000 O   0  0  0  0  0  0  0  0  0  0  0  0
    4.2025   -2.0955    0.0000 O   0  0  0  0  0  0  0  0  0  0  0  0
  8  5  1  0
  9  6  1  0
 10  5  1  0
 11  6  1  0
 12  7  1  0
 18  7  1  0
 18 13  2  0
 19 14  2  0
 19 18  1  0
 20 13  1  0
 21 14  1  0
 21 20  2  0
 22 15  2  0
 23 16  1  0
 24 19  1  6
 25 22  1  0
 25 24  1  0
 27  1  1  0
 27  2  1  0
 27  8  1  0
 28  9  1  1
 28 15  1  0
 28 24  1  0
 29 10  1  0
 29 16  1  0
 29 26  1  0
 30 11  1  0
 30 12  1  0
 28 30  1  0
 31 23  2  0
 32 26  2  0
 33 27  1  0
 29 34  1  1
 35  3  1  0
 35 22  1  0
 36  4  1  0
 36 23  1  0
 37 17  1  0
 37 20  1  0
 38 17  1  0
 38 21  1  0
 25 39  1  6
 39 26  1  0
M  END
>  <ALOGPS_LOGP>  (152) 
2.09

>  <ALOGPS_LOGS>  (152) 
-3.70

>  <ALOGPS_SOLUBILITY>  (152) 
1.08e-01 g/l

>  <DATABASE_NAME>  (152) 
drugbank

>  <DRUGBANK_ID>  (152) 
DB04865

>  <DRUG_GROUPS>  (152) 
approved; investigational

>  <EXACT_MASS>  (152) 
545.262481851

>  <FORMULA>  (152) 
C29H39NO9

>  <GENERIC_NAME>  (152) 
Omacetaxine mepesuccinate

>  <ID>  (152) 


>  <INCHI_IDENTIFIER>  (152) 
InChI=1S/C29H39NO9/c1-27(2,33)8-5-10-29(34,16-23(31)36-4)26(32)39-25-22(35-3)15-28-9-6-11-30(28)12-7-18-13-20-21(38-17-37-20)14-19(18)24(25)28/h13-15,24-25,33-34H,5-12,16-17H2,1-4H3/t24-,25-,28+,29-/m1/s1

>  <INCHI_KEY>  (152) 
HYFHYPWGAURHIV-JFIAXGOJSA-N

>  <INTERNATIONAL_BRANDS>  (152) 
Ceflatonin

>  <JCHEM_ACCEPTOR_COUNT>  (152) 
8

>  <JCHEM_ATOM_COUNT>  (152) 
nan

>  <JCHEM_AVERAGE_POLARIZABILITY>  (152) 
57.62139891867372

>  <JCHEM_BIOAVAILABILITY>  (152) 
0

>  <JCHEM_DONOR_COUNT>  (152) 
2

>  <JCHEM_FORMAL_CHARGE>  (152) 
0

>  <JCHEM_GHOSE_FILTER>  (152) 
0

>  <JCHEM_IUPAC>  (152) 
(2S,3S,6R)-4-methoxy-16,18-dioxa-10-azapentacyclo[11.7.0.0²,⁶.0⁶,¹⁰.0¹⁵,¹⁹]icosa-1(20),4,13,15(19)-tetraen-3-yl 1-methyl (3R)-3-hydroxy-3-(4-hydroxy-4-methylpentyl)butanedioate

>  <JCHEM_LOGP>  (152) 
1.8846706793333348

>  <JCHEM_MDDR_LIKE_RULE>  (152) 
1

>  <JCHEM_NUMBER_OF_RINGS>  (152) 
5

>  <JCHEM_PHYSIOLOGICAL_CHARGE>  (152) 
1

>  <JCHEM_PKA>  (152) 
18.53070408521904

>  <JCHEM_PKA_STRONGEST_ACIDIC>  (152) 
12.090441034596882

>  <JCHEM_PKA_STRONGEST_BASIC>  (152) 
9.417794628939516

>  <JCHEM_POLAR_SURFACE_AREA>  (152) 
123.99000000000002

>  <JCHEM_REFRACTIVITY>  (152) 
142.0749

>  <JCHEM_ROTATABLE_BOND_COUNT>  (152) 
11

>  <JCHEM_RULE_OF_FIVE>  (152) 
0

>  <JCHEM_TRADITIONAL_IUPAC>  (152) 
omacetaxine mepesuccinate

>  <JCHEM_VEBER_RULE>  (152) 
0

>  <MOLECULAR_WEIGHT>  (152) 
545.6213

>  <PRODUCTS>  (152) 
Synribo

>  <SALTS>  (152) 
Omacetaxine mepesuccinate hydrochloride

>  <SECONDARY_ACCESSION_NUMBERS>  (152) 
nan

>  <SMILES>  (152) 
[H][C@@]1(OC(=O)[C@@](O)(CCCC(C)(C)O)CC(=O)OC)C(OC)=C[C@]23CCCN2CCC2=CC4=C(OCO4)C=C2[C@]13[H]

>  <SYNONYMS>  (152) 
(−)-homoharringtonine; (2'R,3S,4S,5R)-(−)-homoharringtonine; HHT; Homoharringtonin; Homoharringtonine; mepesuccinato de omacetaxina; Omacetaxine mepesuccinate

>  <ECFP_FP>  (152) 
<rdkit.DataStructs.cDataStructs.ExplicitBitVect object at 0xa269b9ee0>

>  <pki_G>  (152) 
5.620426

>  <pki_D>  (152) 
5.791066

>  <pki_B>  (152) 
5.486086

>  <pki_A>  (152) 
5.600057

>  <SelB>  (152) 
0.13434

>  <SelA>  (152) 
0.020369

>  <SelD>  (152) 
-0.17064

>  <AvgABSel>  (152) 
0.077354

>  <MACCS_FP>  (152) 
[0. 0. 0. 0. 0. 0. 0. 0. 0. 0. 0. 0. 0. 0. 0. 0. 0. 0. 0. 1. 0. 0. 0. 0.
 0. 0. 0. 0. 1. 0. 0. 0. 0. 0. 0. 0. 0. 0. 0. 0. 0. 0. 0. 0. 0. 0. 0. 0.
 0. 0. 0. 0. 0. 0. 0. 0. 0. 1. 0. 0. 0. 0. 0. 0. 0. 0. 1. 0. 0. 0. 0. 0.
 1. 0. 1. 0. 1. 0. 0. 0. 0. 0. 0. 1. 0. 1. 1. 0. 0. 1. 1. 1. 0. 1. 0. 0.
 1. 1. 0. 1. 1. 1. 0. 0. 1. 1. 0. 0. 1. 1. 0. 1. 1. 1. 0. 1. 1. 0. 1. 0.
 1. 1. 1. 1. 0. 0. 1. 1. 1. 1. 0. 1. 1. 0. 0. 0. 1. 1. 1. 1. 1. 1. 0. 1.
 1. 0. 1. 1. 1. 1. 1. 0. 1. 1. 1. 1. 1. 1. 1. 1. 1. 1. 1. 1. 1. 1. 0.]

>  <MACCS_pki_G>  (152) 
6.027253

>  <MACCS_pki_D>  (152) 
5.65562

>  <MACCS_pki_B>  (152) 
5.594301

>  <MACCS_pki_A>  (152) 
5.782393

>  <MACCS_SelB>  (152) 
0.432952

>  <MACCS_SelA>  (152) 
0.24486

>  <MACCS_SelD>  (152) 
0.371633

>  <MACCSAvgABSel>  (152) 
0.338906

>  <Pharm2D_FP>  (152) 
[0. 0. 0. ... 0. 0. 0.]

>  <Pharm2D_pki_G>  (152) 
6.535978

>  <Pharm2D_pki_D>  (152) 
5.629332

>  <Pharm2D_pki_B>  (152) 
5.458236

>  <Pharm2D_pki_A>  (152) 
5.636902

>  <Pharm2D_SelB>  (152) 
1.077743

>  <Pharm2D_SelA>  (152) 
0.899077

>  <Pharm2D_SelD>  (152) 
0.906646

>  <Pharm2DAvgABSel>  (152) 
0.98841

>  <QED>  (152) 
0.447625

$$$$
DB04666
     RDKit          2D

 25 26  0  0  1  0  0  0  0  0999 V2000
    1.3820   -2.0831    0.0000 C   0  0  0  0  0  0  0  0  0  0  0  0
    0.6676   -1.6706    0.0000 C   0  0  0  0  0  0  0  0  0  0  0  0
    2.0965   -1.6706    0.0000 C   0  0  0  0  0  0  0  0  0  0  0  0
    0.7575   -4.0052    0.0000 C   0  0  0  0  0  0  0  0  0  0  0  0
    0.6082   -5.4263    0.0000 C   0  0  0  0  0  0  0  0  0  0  0  0
   -0.0630   -3.9189    0.0000 C   0  0  0  0  0  0  0  0  0  0  0  0
   -0.2123   -5.3400    0.0000 C   0  0  0  0  0  0  0  0  0  0  0  0
   -0.0469   -2.0831    0.0000 C   0  0  0  0  0  0  0  0  0  0  0  0
    1.9136   -4.8451    0.0000 C   0  0  0  0  0  0  0  0  0  0  0  0
    4.2630   -3.1381    0.0000 C   0  0  0  0  0  0  0  0  0  0  0  0
    1.0931   -4.7588    0.0000 C   0  0  0  0  0  0  0  0  0  0  0  0
   -0.5479   -4.5864    0.0000 C   0  0  0  0  0  0  0  0  0  0  0  0
    2.8110   -2.0831    0.0000 C   0  0  0  0  0  0  0  0  0  0  0  0
    2.3985   -4.1776    0.0000 C   0  0  0  0  0  0  0  0  0  0  0  0
    4.8761   -3.6901    0.0000 C   0  0  0  0  0  0  0  0  0  0  0  0
    2.8110   -2.9081    0.0000 C   0  0  0  0  0  0  0  0  0  0  0  0
    3.2235   -4.1776    0.0000 C   0  0  0  0  0  0  0  0  0  0  0  0
   -0.7614   -1.6706    0.0000 N   0  0  0  0  0  0  0  0  0  0  0  0
    3.5255   -1.6706    0.0000 N   0  0  0  0  0  0  0  0  0  0  0  0
    2.1435   -3.3930    0.0000 N   0  0  0  0  0  0  0  0  0  0  0  0
    3.4784   -3.3930    0.0000 N   0  0  0  0  0  0  0  0  0  0  0  0
   -1.3684   -4.5001    0.0000 O   0  0  0  0  0  0  0  0  0  0  0  0
    5.6608   -3.4352    0.0000 O   0  0  0  0  0  0  0  0  0  0  0  0
    4.7046   -4.4971    0.0000 O   0  0  0  0  0  0  0  0  0  0  0  0
    3.7084   -4.8451    0.0000 O   0  0  0  0  0  0  0  0  0  0  0  0
  2  1  1  0
  3  1  1  0
  6  4  2  0
  7  5  1  0
  8  2  1  0
 11  4  1  0
 11  5  2  0
 11  9  1  0
 12  6  1  0
 12  7  2  0
 13  3  1  0
 14  9  2  0
 15 10  1  0
 16 13  1  0
 17 14  1  0
 18  8  1  0
 13 19  1  6
 20 14  1  0
 20 16  2  0
 21 10  1  0
 21 16  1  0
 21 17  1  0
 22 12  1  0
 23 15  2  0
 24 15  1  0
 25 17  2  0
M  END
>  <ALOGPS_LOGP>  (153) 
-1.41

>  <ALOGPS_LOGS>  (153) 
-3.18

>  <ALOGPS_SOLUBILITY>  (153) 
2.28e-01 g/l

>  <DATABASE_NAME>  (153) 
drugbank

>  <DRUGBANK_ID>  (153) 
DB04666

>  <DRUG_GROUPS>  (153) 
experimental

>  <EXACT_MASS>  (153) 
346.164105212

>  <FORMULA>  (153) 
C17H22N4O4

>  <GENERIC_NAME>  (153) 
CHROMOPHORE (LYS-TYR-GLY)

>  <ID>  (153) 


>  <INCHI_IDENTIFIER>  (153) 
InChI=1S/C17H22N4O4/c18-8-2-1-3-13(19)16-20-14(17(25)21(16)10-15(23)24)9-11-4-6-12(22)7-5-11/h4-7,9,13,22H,1-3,8,10,18-19H2,(H,23,24)/b14-9-/t13-/m0/s1

>  <INCHI_KEY>  (153) 
WMFQEYFPYHFWRF-GFAPJHNFSA-N

>  <INTERNATIONAL_BRANDS>  (153) 
nan

>  <JCHEM_ACCEPTOR_COUNT>  (153) 
7

>  <JCHEM_ATOM_COUNT>  (153) 
nan

>  <JCHEM_AVERAGE_POLARIZABILITY>  (153) 
36.822757920458265

>  <JCHEM_BIOAVAILABILITY>  (153) 
1

>  <JCHEM_DONOR_COUNT>  (153) 
4

>  <JCHEM_FORMAL_CHARGE>  (153) 
0

>  <JCHEM_GHOSE_FILTER>  (153) 
0

>  <JCHEM_IUPAC>  (153) 
2-[(4Z)-2-[(1S)-1,5-diaminopentyl]-4-[(4-hydroxyphenyl)methylidene]-5-oxo-4,5-dihydro-1H-imidazol-1-yl]acetic acid

>  <JCHEM_LOGP>  (153) 
-2.60070588857681

>  <JCHEM_MDDR_LIKE_RULE>  (153) 
0

>  <JCHEM_NUMBER_OF_RINGS>  (153) 
2

>  <JCHEM_PHYSIOLOGICAL_CHARGE>  (153) 
1

>  <JCHEM_PKA>  (153) 
9.21501565853618

>  <JCHEM_PKA_STRONGEST_ACIDIC>  (153) 
3.4012091089326297

>  <JCHEM_PKA_STRONGEST_BASIC>  (153) 
10.2519418317151

>  <JCHEM_POLAR_SURFACE_AREA>  (153) 
142.24

>  <JCHEM_REFRACTIVITY>  (153) 
93.23589999999999

>  <JCHEM_ROTATABLE_BOND_COUNT>  (153) 
8

>  <JCHEM_RULE_OF_FIVE>  (153) 
1

>  <JCHEM_TRADITIONAL_IUPAC>  (153) 
[(4Z)-2-[(1S)-1,5-diaminopentyl]-4-[(4-hydroxyphenyl)methylidene]-5-oxoimidazol-1-yl]acetic acid

>  <JCHEM_VEBER_RULE>  (153) 
0

>  <MOLECULAR_WEIGHT>  (153) 
346.381

>  <PRODUCTS>  (153) 
nan

>  <SALTS>  (153) 
nan

>  <SECONDARY_ACCESSION_NUMBERS>  (153) 
nan

>  <SMILES>  (153) 
[H]\C(=C1\N=C(N(CC(O)=O)C1=O)[C@@]([H])(N)CCCCN)C1=CC=C(O)C=C1

>  <SYNONYMS>  (153) 
nan

>  <ECFP_FP>  (153) 
<rdkit.DataStructs.cDataStructs.ExplicitBitVect object at 0xa2699bbc0>

>  <pki_G>  (153) 
5.613152

>  <pki_D>  (153) 
5.519293

>  <pki_B>  (153) 
5.337449

>  <pki_A>  (153) 
5.397928

>  <SelB>  (153) 
0.275703

>  <SelA>  (153) 
0.215224

>  <SelD>  (153) 
0.093859

>  <AvgABSel>  (153) 
0.245464

>  <MACCS_FP>  (153) 
[0. 0. 0. 0. 0. 0. 0. 0. 0. 0. 0. 0. 0. 0. 0. 0. 0. 0. 0. 0. 0. 0. 0. 0.
 0. 0. 0. 0. 0. 0. 0. 0. 0. 0. 0. 0. 0. 0. 1. 0. 0. 0. 0. 0. 0. 1. 0. 0.
 0. 0. 0. 0. 0. 0. 0. 0. 0. 0. 0. 0. 0. 0. 0. 0. 0. 0. 0. 0. 0. 0. 0. 0.
 0. 0. 0. 1. 1. 1. 1. 1. 0. 0. 1. 1. 1. 1. 0. 0. 0. 0. 1. 1. 1. 0. 0. 1.
 1. 1. 0. 1. 1. 0. 0. 0. 1. 0. 0. 0. 0. 0. 1. 1. 0. 1. 0. 0. 0. 1. 1. 1.
 1. 1. 1. 1. 0. 0. 0. 1. 1. 1. 0. 1. 1. 0. 0. 0. 1. 1. 1. 1. 1. 0. 1. 1.
 0. 0. 1. 1. 1. 0. 1. 1. 1. 1. 1. 1. 1. 1. 1. 1. 0. 1. 1. 1. 1. 1. 0.]

>  <MACCS_pki_G>  (153) 
5.99236

>  <MACCS_pki_D>  (153) 
5.915217

>  <MACCS_pki_B>  (153) 
5.712657

>  <MACCS_pki_A>  (153) 
5.806143

>  <MACCS_SelB>  (153) 
0.279703

>  <MACCS_SelA>  (153) 
0.186217

>  <MACCS_SelD>  (153) 
0.077143

>  <MACCSAvgABSel>  (153) 
0.23296

>  <Pharm2D_FP>  (153) 
[0. 0. 0. ... 0. 0. 0.]

>  <Pharm2D_pki_G>  (153) 
6.424371

>  <Pharm2D_pki_D>  (153) 
5.82191

>  <Pharm2D_pki_B>  (153) 
5.596245

>  <Pharm2D_pki_A>  (153) 
5.58462

>  <Pharm2D_SelB>  (153) 
0.828126

>  <Pharm2D_SelA>  (153) 
0.839751

>  <Pharm2D_SelD>  (153) 
0.602461

>  <Pharm2DAvgABSel>  (153) 
0.833939

>  <QED>  (153) 
0.399014

$$$$
DB03471
     RDKit          2D

 29 30  0  0  1  0  0  0  0  0999 V2000
    2.5559    7.0638    0.0000 C   0  0  0  0  0  0  0  0  0  0  0  0
    2.1434    6.3493    0.0000 C   0  0  0  0  0  0  0  0  0  0  0  0
    1.3184   10.6362    0.0000 C   0  0  0  0  0  0  0  0  0  0  0  0
    1.3184   -0.7954    0.0000 C   0  0  0  0  0  0  0  0  0  0  0  0
    2.1434    7.7783    0.0000 C   0  0  0  0  0  0  0  0  0  0  0  0
    0.9059    9.9217    0.0000 C   0  0  0  0  0  0  0  0  0  0  0  0
    2.1434   10.6362    0.0000 C   0  0  0  0  0  0  0  0  0  0  0  0
    2.1434   -0.7954    0.0000 C   0  0  0  0  0  0  0  0  0  0  0  0
    0.9059   -0.0809    0.0000 C   0  0  0  0  0  0  0  0  0  0  0  0
    2.5559    5.6349    0.0000 C   0  0  0  0  0  0  0  0  0  0  0  0
    2.5559    8.4927    0.0000 C   0  0  0  0  0  0  0  0  0  0  0  0
    1.3184    9.2072    0.0000 C   0  0  0  0  0  0  0  0  0  0  0  0
    2.5559    9.9217    0.0000 C   0  0  0  0  0  0  0  0  0  0  0  0
    2.5559   -0.0809    0.0000 C   0  0  0  0  0  0  0  0  0  0  0  0
    1.3184    0.6336    0.0000 C   0  0  0  0  0  0  0  0  0  0  0  0
    2.1434    4.9204    0.0000 C   0  0  0  0  0  0  0  0  0  0  0  0
    2.5559    1.3480    0.0000 C   0  0  0  0  0  0  0  0  0  0  0  0
    2.1434    2.0625    0.0000 C   0  0  0  0  0  0  0  0  0  0  0  0
    3.3809    2.7770    0.0000 C   0  0  0  0  0  0  0  0  0  0  0  0
    3.7934    2.0625    0.0000 C   0  0  0  0  0  0  0  0  0  0  0  0
    2.1434    9.2072    0.0000 C   0  0  0  0  0  0  0  0  0  0  0  0
    2.1434    0.6336    0.0000 C   0  0  0  0  0  0  0  0  0  0  0  0
    2.5559    2.7770    0.0000 C   0  0  0  0  0  0  0  0  0  0  0  0
    2.5559    4.2059    0.0000 C   0  0  0  0  0  0  0  0  0  0  0  0
    4.6184    2.0625    0.0000 C   0  0  0  0  0  0  0  0  0  0  0  0
    2.1434    3.4914    0.0000 N   0  0  0  0  0  0  0  0  0  0  0  0
    3.3809    4.2059    0.0000 O   0  0  0  0  0  0  0  0  0  0  0  0
    5.0309    2.7770    0.0000 O   0  0  0  0  0  0  0  0  0  0  0  0
    5.0309    1.3480    0.0000 O   0  0  0  0  0  0  0  0  0  0  0  0
  2  1  1  0
  5  1  1  0
  6  3  2  0
  7  3  1  0
  8  4  2  0
  9  4  1  0
 10  2  1  0
 11  5  1  0
 12  6  1  0
 13  7  2  0
 14  8  1  0
 15  9  2  0
 16 10  1  0
 18 17  1  0
 20 19  1  0
 21 11  1  0
 21 12  2  0
 21 13  1  0
 22 14  2  0
 22 15  1  0
 22 17  1  0
 23 18  1  1
 23 19  1  0
 24 16  1  0
 25 20  1  0
 23 26  1  0
 26 24  2  3
 24 27  1  0
 28 25  2  0
 29 25  1  0
M  END
>  <ALOGPS_LOGP>  (154) 
5.18

>  <ALOGPS_LOGS>  (154) 
-6.08

>  <ALOGPS_SOLUBILITY>  (154) 
3.28e-04 g/l

>  <DATABASE_NAME>  (154) 
drugbank

>  <DRUGBANK_ID>  (154) 
DB03471

>  <DRUG_GROUPS>  (154) 
experimental

>  <EXACT_MASS>  (154) 
395.246043927

>  <FORMULA>  (154) 
C25H33NO3

>  <GENERIC_NAME>  (154) 
6-Phenyl-4(R)-(7-Phenyl-Heptanoylamino)-Hexanoic Acid

>  <ID>  (154) 


>  <INCHI_IDENTIFIER>  (154) 
InChI=1S/C25H33NO3/c27-24(16-10-2-1-5-11-21-12-6-3-7-13-21)26-23(19-20-25(28)29)18-17-22-14-8-4-9-15-22/h3-4,6-9,12-15,23H,1-2,5,10-11,16-20H2,(H,26,27)(H,28,29)/t23-/m1/s1

>  <INCHI_KEY>  (154) 
SMNHQYPORNSAQH-HSZRJFAPSA-N

>  <INTERNATIONAL_BRANDS>  (154) 
nan

>  <JCHEM_ACCEPTOR_COUNT>  (154) 
4

>  <JCHEM_ATOM_COUNT>  (154) 
nan

>  <JCHEM_AVERAGE_POLARIZABILITY>  (154) 
46.875394776142244

>  <JCHEM_BIOAVAILABILITY>  (154) 
0

>  <JCHEM_DONOR_COUNT>  (154) 
2

>  <JCHEM_FORMAL_CHARGE>  (154) 
0

>  <JCHEM_GHOSE_FILTER>  (154) 
0

>  <JCHEM_IUPAC>  (154) 
(4R)-4-[(1-hydroxy-7-phenylheptylidene)amino]-6-phenylhexanoic acid

>  <JCHEM_LOGP>  (154) 
5.802369106105959

>  <JCHEM_MDDR_LIKE_RULE>  (154) 
0

>  <JCHEM_NUMBER_OF_RINGS>  (154) 
2

>  <JCHEM_PHYSIOLOGICAL_CHARGE>  (154) 
0

>  <JCHEM_PKA>  (154) 
7.836147008000087

>  <JCHEM_PKA_STRONGEST_ACIDIC>  (154) 
4.282393620815722

>  <JCHEM_PKA_STRONGEST_BASIC>  (154) 
5.00954888409535

>  <JCHEM_POLAR_SURFACE_AREA>  (154) 
69.89

>  <JCHEM_REFRACTIVITY>  (154) 
116.78899999999999

>  <JCHEM_ROTATABLE_BOND_COUNT>  (154) 
14

>  <JCHEM_RULE_OF_FIVE>  (154) 
0

>  <JCHEM_TRADITIONAL_IUPAC>  (154) 
(4R)-4-[(1-hydroxy-7-phenylheptylidene)amino]-6-phenylhexanoic acid

>  <JCHEM_VEBER_RULE>  (154) 
0

>  <MOLECULAR_WEIGHT>  (154) 
395.5344

>  <PRODUCTS>  (154) 
nan

>  <SALTS>  (154) 
nan

>  <SECONDARY_ACCESSION_NUMBERS>  (154) 
EXPT00747

>  <SMILES>  (154) 
[H][C@](CCC(O)=O)(CCC1=CC=CC=C1)N=C(O)CCCCCCC1=CC=CC=C1

>  <SYNONYMS>  (154) 
nan

>  <ECFP_FP>  (154) 
<rdkit.DataStructs.cDataStructs.ExplicitBitVect object at 0xa268d5850>

>  <pki_G>  (154) 
5.604603

>  <pki_D>  (154) 
5.798652

>  <pki_B>  (154) 
5.366688

>  <pki_A>  (154) 
5.742521

>  <SelB>  (154) 
0.237915

>  <SelA>  (154) 
-0.137918

>  <SelD>  (154) 
-0.19405

>  <AvgABSel>  (154) 
0.049999

>  <MACCS_FP>  (154) 
[0. 0. 0. 0. 0. 0. 0. 0. 0. 0. 0. 0. 0. 0. 0. 0. 0. 0. 0. 0. 0. 0. 0. 0.
 0. 0. 0. 0. 0. 0. 0. 0. 0. 0. 0. 0. 0. 0. 0. 0. 0. 0. 0. 0. 0. 0. 0. 0.
 0. 0. 0. 0. 0. 0. 0. 0. 0. 0. 0. 0. 0. 0. 0. 0. 0. 0. 0. 0. 0. 0. 0. 0.
 0. 0. 0. 0. 0. 0. 1. 0. 0. 0. 0. 0. 0. 0. 0. 0. 0. 0. 1. 1. 1. 0. 0. 0.
 0. 0. 0. 0. 0. 0. 0. 0. 1. 0. 0. 0. 0. 0. 1. 1. 0. 0. 0. 0. 0. 1. 1. 1.
 0. 0. 0. 1. 0. 1. 0. 0. 1. 1. 0. 1. 1. 0. 0. 0. 0. 0. 0. 1. 0. 0. 0. 0.
 0. 1. 1. 1. 0. 0. 0. 0. 0. 0. 1. 1. 1. 1. 1. 1. 0. 1. 1. 1. 1. 1. 0.]

>  <MACCS_pki_G>  (154) 
5.712606

>  <MACCS_pki_D>  (154) 
5.859233

>  <MACCS_pki_B>  (154) 
5.525667

>  <MACCS_pki_A>  (154) 
5.645447

>  <MACCS_SelB>  (154) 
0.186939

>  <MACCS_SelA>  (154) 
0.067159

>  <MACCS_SelD>  (154) 
-0.146626

>  <MACCSAvgABSel>  (154) 
0.127049

>  <Pharm2D_FP>  (154) 
[0. 0. 0. ... 0. 0. 0.]

>  <Pharm2D_pki_G>  (154) 
6.176995

>  <Pharm2D_pki_D>  (154) 
5.67066

>  <Pharm2D_pki_B>  (154) 
5.368174

>  <Pharm2D_pki_A>  (154) 
5.462612

>  <Pharm2D_SelB>  (154) 
0.808821

>  <Pharm2D_SelA>  (154) 
0.714383

>  <Pharm2D_SelD>  (154) 
0.506335

>  <Pharm2DAvgABSel>  (154) 
0.761602

>  <QED>  (154) 
0.233979

$$$$
DB12764
     RDKit          2D

 27 31  0  0  0  0  0  0  0  0999 V2000
    1.5662   -2.8960    0.0000 C   0  0  0  0  0  0  0  0  0  0  0  0
    1.5663   -3.7210    0.0000 C   0  0  0  0  0  0  0  0  0  0  0  0
    0.8518   -4.1335    0.0000 C   0  0  0  0  0  0  0  0  0  0  0  0
    0.1373   -3.7210    0.0000 C   0  0  0  0  0  0  0  0  0  0  0  0
    0.1373   -2.8960    0.0000 C   0  0  0  0  0  0  0  0  0  0  0  0
    0.8517   -2.4835    0.0000 C   0  0  0  0  0  0  0  0  0  0  0  0
    0.8517   -1.6585    0.0000 C   0  0  0  0  0  0  0  0  0  0  0  0
    0.1163   -2.0322    0.0000 C   0  0  0  0  0  0  0  0  0  0  0  0
    0.5657   -1.2419    0.0000 C   0  0  0  0  0  0  0  0  0  0  0  0
    0.5657   -0.4945    0.0000 C   0  0  0  0  0  0  0  0  0  0  0  0
    1.3012   -0.1208    0.0000 C   0  0  0  0  0  0  0  0  0  0  0  0
    0.8517   -0.9111    0.0000 C   0  0  0  0  0  0  0  0  0  0  0  0
    2.0368   -0.4945    0.0000 C   0  0  0  0  0  0  0  0  0  0  0  0
    2.0368   -1.2419    0.0000 C   0  0  0  0  0  0  0  0  0  0  0  0
    1.3012   -1.6156    0.0000 C   0  0  0  0  0  0  0  0  0  0  0  0
    1.5873   -2.0322    0.0000 C   0  0  0  0  0  0  0  0  0  0  0  0
    2.8344   -1.4529    0.0000 C   0  0  0  0  0  0  0  0  0  0  0  0
    3.4159   -0.8676    0.0000 O   0  0  0  0  0  0  0  0  0  0  0  0
    3.0505   -2.2490    0.0000 N   0  0  0  0  0  0  0  0  0  0  0  0
    3.8480   -2.4600    0.0000 C   0  0  0  0  0  0  0  0  0  0  0  0
    4.0641   -3.2562    0.0000 C   0  0  0  0  0  0  0  0  0  0  0  0
    4.8617   -3.4671    0.0000 C   0  0  0  0  0  0  0  0  0  0  0  0
    5.0778   -4.2633    0.0000 C   0  0  0  0  0  0  0  0  0  0  0  0
    4.4963   -4.8486    0.0000 N   0  0  0  0  0  0  0  0  0  0  0  0
    3.6988   -4.6376    0.0000 C   0  0  0  0  0  0  0  0  0  0  0  0
    3.4827   -3.8414    0.0000 C   0  0  0  0  0  0  0  0  0  0  0  0
    0.8519   -4.9585    0.0000 Cl  0  0  0  0  0  0  0  0  0  0  0  0
  1  2  2  0
  2  3  1  0
  3  4  2  0
  4  5  1  0
  5  6  2  0
  1  6  1  0
  6  7  1  0
  7  8  1  0
  8  9  1  0
  7 16  1  0
 10 11  1  0
 11 12  1  0
 14 16  1  0
 11 13  1  0
  9 15  1  0
 14 15  1  0
 13 14  1  0
  7 12  1  0
  9 10  1  0
 14 17  1  0
 17 18  2  0
 17 19  1  0
 19 20  1  0
 20 21  1  0
 21 22  2  0
 22 23  1  0
 23 24  2  0
 24 25  1  0
 25 26  2  0
 21 26  1  0
  3 27  1  0
M  END
>  <ALOGPS_LOGP>  (155) 
4.56

>  <ALOGPS_LOGS>  (155) 
-6.25

>  <ALOGPS_SOLUBILITY>  (155) 
2.15e-04 g/l

>  <DATABASE_NAME>  (155) 
drugbank

>  <DRUGBANK_ID>  (155) 
DB12764

>  <DRUG_GROUPS>  (155) 
investigational

>  <EXACT_MASS>  (155) 
380.1655411

>  <FORMULA>  (155) 
C23H25ClN2O

>  <GENERIC_NAME>  (155) 
ABC-294640

>  <ID>  (155) 


>  <INCHI_IDENTIFIER>  (155) 
InChI=1S/C23H25ClN2O/c24-20-3-1-19(2-4-20)22-10-17-9-18(11-22)13-23(12-17,15-22)21(27)26-14-16-5-7-25-8-6-16/h1-8,17-18H,9-15H2,(H,26,27)

>  <INCHI_KEY>  (155) 
CAOTVXGYTWCKQE-UHFFFAOYSA-N

>  <INTERNATIONAL_BRANDS>  (155) 
nan

>  <JCHEM_ACCEPTOR_COUNT>  (155) 
2

>  <JCHEM_ATOM_COUNT>  (155) 
52

>  <JCHEM_AVERAGE_POLARIZABILITY>  (155) 
42.192095693801456

>  <JCHEM_BIOAVAILABILITY>  (155) 
1

>  <JCHEM_DONOR_COUNT>  (155) 
1

>  <JCHEM_FORMAL_CHARGE>  (155) 
0

>  <JCHEM_GHOSE_FILTER>  (155) 
1

>  <JCHEM_IUPAC>  (155) 
3-(4-chlorophenyl)-N-[(pyridin-4-yl)methyl]adamantane-1-carboxamide

>  <JCHEM_LOGP>  (155) 
4.341206200333334

>  <JCHEM_MDDR_LIKE_RULE>  (155) 
0

>  <JCHEM_NUMBER_OF_RINGS>  (155) 
5

>  <JCHEM_PHYSIOLOGICAL_CHARGE>  (155) 
0

>  <JCHEM_PKA>  (155) 
nan

>  <JCHEM_PKA_STRONGEST_ACIDIC>  (155) 
15.120974925780292

>  <JCHEM_PKA_STRONGEST_BASIC>  (155) 
5.020436630241021

>  <JCHEM_POLAR_SURFACE_AREA>  (155) 
41.99

>  <JCHEM_REFRACTIVITY>  (155) 
106.93779999999997

>  <JCHEM_ROTATABLE_BOND_COUNT>  (155) 
4

>  <JCHEM_RULE_OF_FIVE>  (155) 
1

>  <JCHEM_TRADITIONAL_IUPAC>  (155) 
3-(4-chlorophenyl)-N-(pyridin-4-ylmethyl)adamantane-1-carboxamide

>  <JCHEM_VEBER_RULE>  (155) 
0

>  <MOLECULAR_WEIGHT>  (155) 
380.92

>  <PRODUCTS>  (155) 
nan

>  <SALTS>  (155) 
nan

>  <SECONDARY_ACCESSION_NUMBERS>  (155) 
nan

>  <SMILES>  (155) 
ClC1=CC=C(C=C1)C12CC3CC(CC(C3)(C1)C(=O)NCC1=CC=NC=C1)C2

>  <SYNONYMS>  (155) 
nan

>  <ECFP_FP>  (155) 
<rdkit.DataStructs.cDataStructs.ExplicitBitVect object at 0xa26c58670>

>  <pki_G>  (155) 
5.601531

>  <pki_D>  (155) 
5.83168

>  <pki_B>  (155) 
5.421446

>  <pki_A>  (155) 
5.961747

>  <SelB>  (155) 
0.180086

>  <SelA>  (155) 
-0.360215

>  <SelD>  (155) 
-0.230149

>  <AvgABSel>  (155) 
-0.090065

>  <MACCS_FP>  (155) 
[0. 0. 0. 0. 0. 0. 0. 0. 0. 0. 0. 0. 0. 0. 0. 0. 0. 0. 0. 0. 0. 0. 0. 0.
 0. 0. 0. 0. 0. 0. 0. 0. 0. 0. 0. 0. 0. 0. 0. 0. 0. 0. 0. 0. 0. 0. 0. 0.
 0. 0. 0. 0. 0. 0. 0. 0. 0. 0. 0. 0. 0. 0. 1. 0. 0. 1. 1. 0. 0. 0. 0. 0.
 0. 0. 0. 0. 0. 0. 0. 0. 0. 0. 1. 0. 0. 0. 0. 1. 0. 0. 1. 0. 1. 0. 0. 0.
 0. 0. 1. 0. 1. 1. 0. 1. 0. 1. 0. 1. 0. 0. 1. 0. 1. 0. 0. 0. 0. 1. 0. 0.
 0. 1. 0. 0. 0. 1. 0. 0. 1. 0. 0. 0. 0. 0. 1. 0. 0. 1. 0. 0. 0. 0. 1. 0.
 0. 1. 0. 0. 0. 0. 0. 1. 0. 1. 1. 1. 1. 0. 1. 0. 0. 1. 1. 1. 1. 1. 0.]

>  <MACCS_pki_G>  (155) 
5.957642

>  <MACCS_pki_D>  (155) 
5.66529

>  <MACCS_pki_B>  (155) 
5.501538

>  <MACCS_pki_A>  (155) 
5.358253

>  <MACCS_SelB>  (155) 
0.456104

>  <MACCS_SelA>  (155) 
0.599389

>  <MACCS_SelD>  (155) 
0.292351

>  <MACCSAvgABSel>  (155) 
0.527747

>  <Pharm2D_FP>  (155) 
[0. 0. 0. ... 0. 0. 0.]

>  <Pharm2D_pki_G>  (155) 
6.086251

>  <Pharm2D_pki_D>  (155) 
5.531777

>  <Pharm2D_pki_B>  (155) 
5.491382

>  <Pharm2D_pki_A>  (155) 
4.999794

>  <Pharm2D_SelB>  (155) 
0.594869

>  <Pharm2D_SelA>  (155) 
1.086458

>  <Pharm2D_SelD>  (155) 
0.554474

>  <Pharm2DAvgABSel>  (155) 
0.840663

>  <QED>  (155) 
0.820017

$$$$
DB01910
     RDKit          2D

 27 29  0  0  0  0  0  0  0  0999 V2000
    2.2961    7.3083    0.0000 C   0  0  0  0  0  0  0  0  0  0  0  0
    1.5817    7.7208    0.0000 C   0  0  0  0  0  0  0  0  0  0  0  0
    3.7251    7.3083    0.0000 C   0  0  0  0  0  0  0  0  0  0  0  0
    7.8964    9.4887    0.0000 C   0  0  0  0  0  0  0  0  0  0  0  0
    5.2558   10.1810    0.0000 C   0  0  0  0  0  0  0  0  0  0  0  0
    3.0106    7.7208    0.0000 C   0  0  0  0  0  0  0  0  0  0  0  0
    0.8672    7.3083    0.0000 C   0  0  0  0  0  0  0  0  0  0  0  0
    4.4395    7.7208    0.0000 C   0  0  0  0  0  0  0  0  0  0  0  0
    6.5615   10.4585    0.0000 C   0  0  0  0  0  0  0  0  0  0  0  0
    5.1932    7.3853    0.0000 C   0  0  0  0  0  0  0  0  0  0  0  0
    5.7453    7.9984    0.0000 C   0  0  0  0  0  0  0  0  0  0  0  0
    7.3152   10.7941    0.0000 C   0  0  0  0  0  0  0  0  0  0  0  0
    6.4753    9.6380    0.0000 C   0  0  0  0  0  0  0  0  0  0  0  0
    5.3328    8.7128    0.0000 C   0  0  0  0  0  0  0  0  0  0  0  0
    0.1527    7.7208    0.0000 C   0  0  0  0  0  0  0  0  0  0  0  0
    3.0106    8.5458    0.0000 N   0  0  0  0  0  0  0  0  0  0  0  0
    0.8672    6.4833    0.0000 N   0  0  0  0  0  0  0  0  0  0  0  0
    7.4014   11.6146    0.0000 N   0  0  0  0  0  0  0  0  0  0  0  0
    7.9826   10.3092    0.0000 N   0  0  0  0  0  0  0  0  0  0  0  0
    7.1427    9.1531    0.0000 N   0  0  0  0  0  0  0  0  0  0  0  0
    5.8078   10.7941    0.0000 N   0  0  0  0  0  0  0  0  0  0  0  0
    5.6683    9.4665    0.0000 N   0  0  0  0  0  0  0  0  0  0  0  0
    5.3647    6.5783    0.0000 O   0  0  0  0  0  0  0  0  0  0  0  0
    6.5657    7.9121    0.0000 O   0  0  0  0  0  0  0  0  0  0  0  0
   -0.5618    7.3083    0.0000 O   0  0  0  0  0  0  0  0  0  0  0  0
    0.1527    8.5458    0.0000 O   0  0  0  0  0  0  0  0  0  0  0  0
    4.5258    8.5413    0.0000 O   0  0  0  0  0  0  0  0  0  0  0  0
  2  1  1  0
  6  1  1  0
  6  3  1  0
  7  2  1  0
  8  3  1  1
 10  8  1  0
 11 10  1  0
 12  9  2  0
 13  9  1  0
 14 11  1  0
 15  7  1  0
  6 16  1  6
  7 17  1  6
 18 12  1  0
 19  4  2  0
 19 12  1  0
 20  4  1  0
 20 13  2  0
 21  5  2  0
 21  9  1  0
 22  5  1  0
 22 13  1  0
 14 22  1  1
 10 23  1  6
 11 24  1  6
 25 15  2  0
 26 15  1  0
 27  8  1  0
 27 14  1  0
M  END
>  <ALOGPS_LOGP>  (156) 
-3.05

>  <ALOGPS_LOGS>  (156) 
-1.92

>  <ALOGPS_SOLUBILITY>  (156) 
4.63e+00 g/l

>  <DATABASE_NAME>  (156) 
drugbank

>  <DRUGBANK_ID>  (156) 
DB01910

>  <DRUG_GROUPS>  (156) 
experimental

>  <EXACT_MASS>  (156) 
381.176066881

>  <FORMULA>  (156) 
C15H23N7O5

>  <GENERIC_NAME>  (156) 
Sinefungin

>  <ID>  (156) 


>  <INCHI_IDENTIFIER>  (156) 
InChI=1S/C15H23N7O5/c16-6(1-2-7(17)15(25)26)3-8-10(23)11(24)14(27-8)22-5-21-9-12(18)19-4-20-13(9)22/h4-8,10-11,14,23-24H,1-3,16-17H2,(H,25,26)(H2,18,19,20)/t6-,7-,8+,10+,11+,14+/m0/s1

>  <INCHI_KEY>  (156) 
LMXOHSDXUQEUSF-YECHIGJVSA-N

>  <INTERNATIONAL_BRANDS>  (156) 
nan

>  <JCHEM_ACCEPTOR_COUNT>  (156) 
11

>  <JCHEM_ATOM_COUNT>  (156) 
nan

>  <JCHEM_AVERAGE_POLARIZABILITY>  (156) 
37.68650181215635

>  <JCHEM_BIOAVAILABILITY>  (156) 
0

>  <JCHEM_DONOR_COUNT>  (156) 
6

>  <JCHEM_FORMAL_CHARGE>  (156) 
0

>  <JCHEM_GHOSE_FILTER>  (156) 
0

>  <JCHEM_IUPAC>  (156) 
(2S,5S)-2,5-diamino-6-[(2R,3S,4R,5R)-5-(6-amino-9H-purin-9-yl)-3,4-dihydroxyoxolan-2-yl]hexanoic acid

>  <JCHEM_LOGP>  (156) 
-5.138679707504106

>  <JCHEM_MDDR_LIKE_RULE>  (156) 
1

>  <JCHEM_NUMBER_OF_RINGS>  (156) 
3

>  <JCHEM_PHYSIOLOGICAL_CHARGE>  (156) 
1

>  <JCHEM_PKA>  (156) 
12.48129078946981

>  <JCHEM_PKA_STRONGEST_ACIDIC>  (156) 
1.9480808652263852

>  <JCHEM_PKA_STRONGEST_BASIC>  (156) 
10.180208209426675

>  <JCHEM_POLAR_SURFACE_AREA>  (156) 
208.64999999999995

>  <JCHEM_REFRACTIVITY>  (156) 
92.67839999999998

>  <JCHEM_ROTATABLE_BOND_COUNT>  (156) 
7

>  <JCHEM_RULE_OF_FIVE>  (156) 
0

>  <JCHEM_TRADITIONAL_IUPAC>  (156) 
sinefungin

>  <JCHEM_VEBER_RULE>  (156) 
0

>  <MOLECULAR_WEIGHT>  (156) 
381.387

>  <PRODUCTS>  (156) 
nan

>  <SALTS>  (156) 
nan

>  <SECONDARY_ACCESSION_NUMBERS>  (156) 
EXPT02890

>  <SMILES>  (156) 
[H][C@](N)(CC[C@]([H])(N)C(O)=O)C[C@@]1([H])O[C@@]([H])(N2C=NC3=C(N)N=CN=C23)[C@]([H])(O)[C@]1([H])O

>  <SYNONYMS>  (156) 
(2S,5S)-2,5-diamino-6-[(2R,3S,R,5R)-5-(6-amino-9H-purin-9-yl)-3,4-dihydroxytetrahydrofuran-2-yl]hexanoic acid; 6,9-Diamino-1-(6-amino-9H-purin-9-yl)-1,5,6,7,8,9-hexadeoxy-beta-D-ribo-decofuranuronic acid; 6,9-Diamino-1-(6-amino-9H-purin-9-yl)-1,5,6,7,8,9-hexadeoxydecofuranuronic acid; Adenosyl-ornithine; Sinefungin; sinefungina; sinefungine; sinefunginum

>  <ECFP_FP>  (156) 
<rdkit.DataStructs.cDataStructs.ExplicitBitVect object at 0xa266d8bc0>

>  <pki_G>  (156) 
5.560194

>  <pki_D>  (156) 
5.728787

>  <pki_B>  (156) 
5.344396

>  <pki_A>  (156) 
5.142166

>  <SelB>  (156) 
0.215798

>  <SelA>  (156) 
0.418029

>  <SelD>  (156) 
-0.168592

>  <AvgABSel>  (156) 
0.316913

>  <MACCS_FP>  (156) 
[0. 0. 0. 0. 0. 0. 0. 0. 0. 0. 0. 0. 0. 0. 0. 0. 0. 0. 0. 0. 0. 0. 0. 0.
 0. 0. 0. 0. 0. 0. 0. 0. 0. 0. 0. 0. 0. 0. 1. 0. 0. 0. 0. 0. 0. 0. 0. 0.
 0. 0. 0. 0. 0. 0. 1. 0. 0. 1. 0. 0. 0. 0. 1. 0. 0. 1. 0. 0. 0. 0. 0. 0.
 1. 0. 0. 1. 0. 1. 0. 1. 1. 0. 0. 1. 1. 1. 0. 0. 0. 1. 1. 1. 1. 0. 0. 1.
 1. 1. 1. 0. 0. 1. 0. 0. 1. 1. 0. 0. 0. 0. 1. 1. 0. 0. 0. 0. 0. 1. 1. 0.
 1. 1. 1. 1. 0. 1. 0. 1. 0. 1. 0. 1. 1. 1. 0. 1. 0. 1. 0. 1. 1. 0. 1. 1.
 0. 0. 1. 1. 1. 0. 1. 1. 1. 0. 1. 1. 1. 1. 1. 1. 0. 1. 1. 1. 1. 1. 0.]

>  <MACCS_pki_G>  (156) 
5.76209

>  <MACCS_pki_D>  (156) 
5.728695

>  <MACCS_pki_B>  (156) 
5.508242

>  <MACCS_pki_A>  (156) 
5.88858

>  <MACCS_SelB>  (156) 
0.253849

>  <MACCS_SelA>  (156) 
-0.126489

>  <MACCS_SelD>  (156) 
0.033395

>  <MACCSAvgABSel>  (156) 
0.06368

>  <Pharm2D_FP>  (156) 
[0. 0. 0. ... 0. 0. 0.]

>  <Pharm2D_pki_G>  (156) 
6.663993

>  <Pharm2D_pki_D>  (156) 
6.037135

>  <Pharm2D_pki_B>  (156) 
5.679129

>  <Pharm2D_pki_A>  (156) 
5.773052

>  <Pharm2D_SelB>  (156) 
0.984864

>  <Pharm2D_SelA>  (156) 
0.890941

>  <Pharm2D_SelD>  (156) 
0.626858

>  <Pharm2DAvgABSel>  (156) 
0.937902

>  <QED>  (156) 
0.306822

$$$$
DB14876
     RDKit          2D

 34 38  0  0  0  0  0  0  0  0999 V2000
   -1.5025   -0.4721    0.0000 C   0  0  0  0  0  0  0  0  0  0  0  0
   -1.7575    0.3126    0.0000 C   0  0  0  0  0  0  0  0  0  0  0  0
   -1.2054    0.9256    0.0000 C   0  0  0  0  0  0  0  0  0  0  0  0
   -1.4604    1.7103    0.0000 C   0  0  0  0  0  0  0  0  0  0  0  0
   -0.9083    2.3234    0.0000 C   0  0  0  0  0  0  0  0  0  0  0  0
   -0.1014    2.1518    0.0000 C   0  0  0  0  0  0  0  0  0  0  0  0
    0.1536    1.3672    0.0000 C   0  0  0  0  0  0  0  0  0  0  0  0
   -0.3984    0.7541    0.0000 C   0  0  0  0  0  0  0  0  0  0  0  0
   -0.1435   -0.0305    0.0000 N   0  0  0  0  0  0  0  0  0  0  0  0
   -0.6284   -0.6979    0.0000 N   0  0  0  0  0  0  0  0  0  0  0  0
   -0.1435   -1.3654    0.0000 C   0  0  0  0  0  0  0  0  0  0  0  0
   -0.3984   -2.1500    0.0000 C   0  0  0  0  0  0  0  0  0  0  0  0
    0.1536   -2.7631    0.0000 C   0  0  0  0  0  0  0  0  0  0  0  0
   -1.2054   -2.3215    0.0000 C   0  0  0  0  0  0  0  0  0  0  0  0
    0.6411   -1.1104    0.0000 C   0  0  0  0  0  0  0  0  0  0  0  0
    0.6411   -0.2854    0.0000 C   0  0  0  0  0  0  0  0  0  0  0  0
    1.3556    0.1271    0.0000 N   0  0  0  0  0  0  0  0  0  0  0  0
    2.0701   -0.2854    0.0000 C   0  0  0  0  0  0  0  0  0  0  0  0
    2.0701   -1.1104    0.0000 C   0  0  0  0  0  0  0  0  0  0  0  0
    1.3556   -1.5229    0.0000 C   0  0  0  0  0  0  0  0  0  0  0  0
    1.3556   -2.3479    0.0000 N   0  0  0  0  0  0  0  0  0  0  0  0
    2.0230   -2.8329    0.0000 C   0  0  0  0  0  0  0  0  0  0  0  0
    1.7681   -3.6175    0.0000 N   0  0  0  0  0  0  0  0  0  0  0  0
    0.9431   -3.6175    0.0000 C   0  0  0  0  0  0  0  0  0  0  0  0
    0.6881   -2.8329    0.0000 C   0  0  0  0  0  0  0  0  0  0  0  0
    0.4582   -4.2849    0.0000 C   0  0  0  0  0  0  0  0  0  0  0  0
    0.7131   -5.0695    0.0000 C   0  0  0  0  0  0  0  0  0  0  0  0
    0.0457   -5.5545    0.0000 N   0  0  0  0  0  0  0  0  0  0  0  0
    0.0457   -6.3795    0.0000 C   0  0  0  0  0  0  0  0  0  0  0  0
   -0.6218   -5.0695    0.0000 N   0  0  0  0  0  0  0  0  0  0  0  0
   -0.3668   -4.2849    0.0000 C   0  0  0  0  0  0  0  0  0  0  0  0
   -1.1633    3.1080    0.0000 C   0  0  0  0  0  0  0  0  0  0  0  0
   -1.9702    3.2795    0.0000 N   0  0  0  0  0  0  0  0  0  0  0  0
   -0.6112    3.7211    0.0000 O   0  0  0  0  0  0  0  0  0  0  0  0
  1  2  1  0
  2  3  1  0
  3  4  2  0
  4  5  1  0
  5  6  2  0
  6  7  1  0
  7  8  2  0
  3  8  1  0
  8  9  1  0
  9 10  1  0
 10 11  2  0
 11 12  1  0
 12 13  1  0
 12 14  1  0
 11 15  1  0
 15 16  2  0
  9 16  1  0
 16 17  1  0
 17 18  2  0
 18 19  1  0
 19 20  2  0
 15 20  1  0
 20 21  1  0
 21 22  1  0
 22 23  2  0
 23 24  1  0
 24 25  2  0
 21 25  1  0
 24 26  1  0
 26 27  2  0
 27 28  1  0
 28 29  1  0
 28 30  1  0
 30 31  2  0
 26 31  1  0
  5 32  1  0
 32 33  1  0
 32 34  2  0
M  END
>  <ALOGPS_LOGP>  (157) 
3.65

>  <ALOGPS_LOGS>  (157) 
-3.63

>  <ALOGPS_SOLUBILITY>  (157) 
1.06e-01 g/l

>  <DATABASE_NAME>  (157) 
drugbank

>  <DRUGBANK_ID>  (157) 
DB14876

>  <DRUG_GROUPS>  (157) 
investigational

>  <EXACT_MASS>  (157) 
454.222957489

>  <FORMULA>  (157) 
C25H26N8O

>  <GENERIC_NAME>  (157) 
TAS-116

>  <ID>  (157) 


>  <INCHI_IDENTIFIER>  (157) 
InChI=1S/C25H26N8O/c1-5-16-10-17(24(26)34)6-7-20(16)33-25-22(23(30-33)15(2)3)21(8-9-27-25)32-13-19(28-14-32)18-11-29-31(4)12-18/h6-15H,5H2,1-4H3,(H2,26,34)

>  <INCHI_KEY>  (157) 
NVVPMZUGELHVMH-UHFFFAOYSA-N

>  <INTERNATIONAL_BRANDS>  (157) 
nan

>  <JCHEM_ACCEPTOR_COUNT>  (157) 
5

>  <JCHEM_ATOM_COUNT>  (157) 
60

>  <JCHEM_AVERAGE_POLARIZABILITY>  (157) 
50.35576009640114

>  <JCHEM_BIOAVAILABILITY>  (157) 
1

>  <JCHEM_DONOR_COUNT>  (157) 
1

>  <JCHEM_FORMAL_CHARGE>  (157) 
0

>  <JCHEM_GHOSE_FILTER>  (157) 
0

>  <JCHEM_IUPAC>  (157) 
3-ethyl-4-{4-[4-(1-methyl-1H-pyrazol-4-yl)-1H-imidazol-1-yl]-3-(propan-2-yl)-1H-pyrazolo[3,4-b]pyridin-1-yl}benzamide

>  <JCHEM_LOGP>  (157) 
3.6353547103333335

>  <JCHEM_MDDR_LIKE_RULE>  (157) 
1

>  <JCHEM_NUMBER_OF_RINGS>  (157) 
5

>  <JCHEM_PHYSIOLOGICAL_CHARGE>  (157) 
0

>  <JCHEM_PKA>  (157) 
nan

>  <JCHEM_PKA_STRONGEST_ACIDIC>  (157) 
14.81627674473211

>  <JCHEM_PKA_STRONGEST_BASIC>  (157) 
4.878066325586581

>  <JCHEM_POLAR_SURFACE_AREA>  (157) 
109.44

>  <JCHEM_REFRACTIVITY>  (157) 
152.6726

>  <JCHEM_ROTATABLE_BOND_COUNT>  (157) 
6

>  <JCHEM_RULE_OF_FIVE>  (157) 
1

>  <JCHEM_TRADITIONAL_IUPAC>  (157) 
(2R)-14-fluoro-2-methyl-6,9,10,19-tetraazapentacyclo[14.2.1.0^{2,6}.0^{8,18}.0^{12,17}]nonadeca-1(18),8,12(17),13,15-pentaen-11-one

>  <JCHEM_VEBER_RULE>  (157) 
0

>  <MOLECULAR_WEIGHT>  (157) 
454.538

>  <PRODUCTS>  (157) 
nan

>  <SALTS>  (157) 
nan

>  <SECONDARY_ACCESSION_NUMBERS>  (157) 
nan

>  <SMILES>  (157) 
CCC1=CC(=CC=C1N1N=C(C(C)C)C2=C1N=CC=C2N1C=NC(=C1)C1=CN(C)N=C1)C(N)=O

>  <SYNONYMS>  (157) 
nan

>  <ECFP_FP>  (157) 
<rdkit.DataStructs.cDataStructs.ExplicitBitVect object at 0xa26d38350>

>  <pki_G>  (157) 
5.469514

>  <pki_D>  (157) 
5.744269

>  <pki_B>  (157) 
5.358273

>  <pki_A>  (157) 
5.681466

>  <SelB>  (157) 
0.111241

>  <SelA>  (157) 
-0.211953

>  <SelD>  (157) 
-0.274756

>  <AvgABSel>  (157) 
-0.050356

>  <MACCS_FP>  (157) 
[0. 0. 0. 0. 0. 0. 0. 0. 0. 0. 0. 0. 0. 0. 0. 0. 0. 0. 0. 0. 0. 0. 0. 0.
 0. 0. 0. 0. 0. 0. 0. 0. 0. 0. 0. 0. 0. 0. 1. 0. 0. 0. 0. 0. 0. 0. 0. 0.
 0. 0. 0. 0. 1. 0. 0. 0. 0. 0. 0. 0. 0. 0. 1. 0. 0. 1. 0. 0. 0. 0. 0. 0.
 0. 0. 1. 1. 0. 1. 0. 1. 1. 0. 0. 1. 1. 1. 0. 0. 0. 0. 0. 0. 1. 1. 1. 0.
 1. 0. 1. 0. 0. 1. 0. 0. 0. 1. 0. 0. 0. 0. 1. 0. 0. 0. 1. 0. 0. 1. 0. 0.
 1. 1. 1. 0. 1. 1. 0. 0. 0. 0. 1. 0. 0. 1. 0. 1. 0. 1. 0. 0. 0. 1. 1. 0.
 1. 1. 0. 0. 1. 1. 1. 1. 0. 0. 1. 1. 1. 0. 1. 0. 1. 1. 1. 1. 1. 1. 0.]

>  <MACCS_pki_G>  (157) 
5.847554

>  <MACCS_pki_D>  (157) 
5.953864

>  <MACCS_pki_B>  (157) 
5.354623

>  <MACCS_pki_A>  (157) 
5.210163

>  <MACCS_SelB>  (157) 
0.492931

>  <MACCS_SelA>  (157) 
0.637392

>  <MACCS_SelD>  (157) 
-0.10631

>  <MACCSAvgABSel>  (157) 
0.565161

>  <Pharm2D_FP>  (157) 
[0. 0. 0. ... 0. 0. 0.]

>  <Pharm2D_pki_G>  (157) 
6.37131

>  <Pharm2D_pki_D>  (157) 
5.846952

>  <Pharm2D_pki_B>  (157) 
5.549331

>  <Pharm2D_pki_A>  (157) 
5.709382

>  <Pharm2D_SelB>  (157) 
0.821979

>  <Pharm2D_SelA>  (157) 
0.661928

>  <Pharm2D_SelD>  (157) 
0.524358

>  <Pharm2DAvgABSel>  (157) 
0.741953

>  <QED>  (157) 
0.419752

$$$$
DB13243
     RDKit          2D

 17 18  0  0  1  0  0  0  0  0999 V2000
   -1.5056    0.2572    0.0000 C   0  0  0  0  0  0  0  0  0  0  0  0
    1.9239    2.7489    0.0000 C   0  0  0  0  0  0  0  0  0  0  0  0
    1.2564    3.2338    0.0000 C   0  0  0  0  0  0  0  0  0  0  0  0
   -0.7209    0.5122    0.0000 C   0  0  0  0  0  0  0  0  0  0  0  0
   -0.0535    0.0273    0.0000 C   0  0  0  0  0  0  0  0  0  0  0  0
    0.6139    0.5122    0.0000 C   0  0  0  0  0  0  0  0  0  0  0  0
    0.3590    1.2968    0.0000 C   0  0  0  0  0  0  0  0  0  0  0  0
    1.2564    4.0588    0.0000 C   0  0  0  0  0  0  0  0  0  0  0  0
    0.8439    1.9642    0.0000 C   0  0  0  0  0  0  0  0  0  0  0  0
    1.9709    4.4713    0.0000 N   0  0  0  0  0  0  0  0  0  0  0  0
    0.5890    2.7489    0.0000 N   0  0  0  0  0  0  0  0  0  0  0  0
   -1.6771   -0.5497    0.0000 O   0  0  0  0  0  0  0  0  0  0  0  0
   -0.0535   -0.7977    0.0000 O   0  0  0  0  0  0  0  0  0  0  0  0
    1.3986    0.2572    0.0000 O   0  0  0  0  0  0  0  0  0  0  0  0
    0.5420    4.4713    0.0000 O   0  0  0  0  0  0  0  0  0  0  0  0
   -0.4660    1.2968    0.0000 O   0  0  0  0  0  0  0  0  0  0  0  0
    1.6689    1.9642    0.0000 S   0  0  0  0  0  0  0  0  0  0  0  0
  3  2  2  0
  4  1  1  1
  5  4  1  0
  6  5  1  0
  7  6  1  0
  8  3  1  0
  7  9  1  1
 10  8  2  0
 11  3  1  0
 11  9  2  0
 12  1  1  0
  5 13  1  6
  6 14  1  6
 15  8  1  0
 16  4  1  0
 16  7  1  0
 17  2  1  0
 17  9  1  0
M  END
>  <ALOGPS_LOGP>  (158) 
-1.45

>  <ALOGPS_LOGS>  (158) 
-2.48

>  <ALOGPS_SOLUBILITY>  (158) 
8.58e-01 g/l

>  <DATABASE_NAME>  (158) 
drugbank

>  <DRUGBANK_ID>  (158) 
DB13243

>  <DRUG_GROUPS>  (158) 
experimental

>  <EXACT_MASS>  (158) 
260.046692194

>  <FORMULA>  (158) 
C9H12N2O5S

>  <GENERIC_NAME>  (158) 
Tiazofurine

>  <ID>  (158) 


>  <INCHI_IDENTIFIER>  (158) 
InChI=1S/C9H12N2O5S/c10-8(15)3-2-17-9(11-3)7-6(14)5(13)4(1-12)16-7/h2,4-7,12-14H,1H2,(H2,10,15)/t4-,5-,6-,7-/m1/s1

>  <INCHI_KEY>  (158) 
FVRDYQYEVDDKCR-DBRKOABJSA-N

>  <INTERNATIONAL_BRANDS>  (158) 
nan

>  <JCHEM_ACCEPTOR_COUNT>  (158) 
7

>  <JCHEM_ATOM_COUNT>  (158) 
nan

>  <JCHEM_AVERAGE_POLARIZABILITY>  (158) 
24.300792327115808

>  <JCHEM_BIOAVAILABILITY>  (158) 
1

>  <JCHEM_DONOR_COUNT>  (158) 
5

>  <JCHEM_FORMAL_CHARGE>  (158) 
0

>  <JCHEM_GHOSE_FILTER>  (158) 
0

>  <JCHEM_IUPAC>  (158) 
2-[(2R,3R,4S,5R)-3,4-dihydroxy-5-(hydroxymethyl)oxolan-2-yl]-1,3-thiazole-4-carboximidic acid

>  <JCHEM_LOGP>  (158) 
-1.2134969500000004

>  <JCHEM_MDDR_LIKE_RULE>  (158) 
0

>  <JCHEM_NUMBER_OF_RINGS>  (158) 
2

>  <JCHEM_PHYSIOLOGICAL_CHARGE>  (158) 
0

>  <JCHEM_PKA>  (158) 
12.591763274192324

>  <JCHEM_PKA_STRONGEST_ACIDIC>  (158) 
7.5961192670321545

>  <JCHEM_PKA_STRONGEST_BASIC>  (158) 
4.320721916780112

>  <JCHEM_POLAR_SURFACE_AREA>  (158) 
126.89000000000001

>  <JCHEM_REFRACTIVITY>  (158) 
67.4673

>  <JCHEM_ROTATABLE_BOND_COUNT>  (158) 
3

>  <JCHEM_RULE_OF_FIVE>  (158) 
1

>  <JCHEM_TRADITIONAL_IUPAC>  (158) 
tiazofurin

>  <JCHEM_VEBER_RULE>  (158) 
0

>  <MOLECULAR_WEIGHT>  (158) 
260.267

>  <PRODUCTS>  (158) 
nan

>  <SALTS>  (158) 
nan

>  <SECONDARY_ACCESSION_NUMBERS>  (158) 
nan

>  <SMILES>  (158) 
[H][C@]1(CO)O[C@@]([H])(C2=NC(=CS2)C(O)=N)[C@]([H])(O)[C@]1([H])O

>  <SYNONYMS>  (158) 
Tiazofurin; tiazofurina; Tiazofurine

>  <ECFP_FP>  (158) 
<rdkit.DataStructs.cDataStructs.ExplicitBitVect object at 0xa26c90f80>

>  <pki_G>  (158) 
5.468004

>  <pki_D>  (158) 
5.659228

>  <pki_B>  (158) 
5.546404

>  <pki_A>  (158) 
4.741911

>  <SelB>  (158) 
-0.0784

>  <SelA>  (158) 
0.726093

>  <SelD>  (158) 
-0.191223

>  <AvgABSel>  (158) 
0.323847

>  <MACCS_FP>  (158) 
[0. 0. 0. 0. 0. 0. 0. 0. 0. 0. 0. 0. 0. 0. 0. 0. 0. 0. 0. 0. 0. 0. 0. 0.
 0. 0. 0. 0. 0. 0. 0. 0. 0. 0. 0. 0. 1. 0. 0. 0. 0. 0. 0. 1. 0. 0. 0. 1.
 0. 0. 0. 0. 0. 1. 1. 0. 0. 1. 0. 0. 0. 0. 1. 0. 0. 1. 0. 0. 0. 0. 0. 0.
 1. 0. 0. 0. 0. 0. 1. 1. 0. 1. 1. 1. 0. 0. 0. 0. 1. 1. 1. 1. 1. 0. 0. 1.
 1. 1. 0. 0. 0. 0. 0. 0. 0. 0. 0. 0. 0. 1. 1. 0. 0. 0. 0. 0. 0. 1. 0. 1.
 1. 1. 0. 0. 0. 0. 0. 1. 0. 0. 0. 1. 1. 0. 0. 0. 0. 1. 0. 1. 1. 0. 1. 1.
 0. 0. 1. 0. 0. 0. 1. 1. 1. 1. 0. 1. 1. 1. 0. 1. 0. 1. 1. 0. 1. 1. 0.]

>  <MACCS_pki_G>  (158) 
6.214386

>  <MACCS_pki_D>  (158) 
5.686282

>  <MACCS_pki_B>  (158) 
5.699437

>  <MACCS_pki_A>  (158) 
5.430485

>  <MACCS_SelB>  (158) 
0.514949

>  <MACCS_SelA>  (158) 
0.783901

>  <MACCS_SelD>  (158) 
0.528104

>  <MACCSAvgABSel>  (158) 
0.649425

>  <Pharm2D_FP>  (158) 
[0. 0. 0. ... 0. 0. 0.]

>  <Pharm2D_pki_G>  (158) 
5.842734

>  <Pharm2D_pki_D>  (158) 
5.616927

>  <Pharm2D_pki_B>  (158) 
5.468625

>  <Pharm2D_pki_A>  (158) 
5.447526

>  <Pharm2D_SelB>  (158) 
0.374109

>  <Pharm2D_SelA>  (158) 
0.395208

>  <Pharm2D_SelD>  (158) 
0.225807

>  <Pharm2DAvgABSel>  (158) 
0.384659

>  <QED>  (158) 
0.356799

$$$$
DB00951
     RDKit          2D

 10 10  0  0  0  0  0  0  0  0999 V2000
    1.6500    0.9034    0.0000 O   0  0  0  0  0  0  0  0  0  0  0  0
    3.0790    0.9034    0.0000 N   0  0  0  0  0  0  0  0  0  0  0  0
    2.3644   -1.9841    0.0000 N   0  0  0  0  0  0  0  0  0  0  0  0
    3.0790    1.7284    0.0000 N   0  0  0  0  0  0  0  0  0  0  0  0
    2.3644   -0.3341    0.0000 C   0  0  0  0  0  0  0  0  0  0  0  0
    3.0790   -0.7466    0.0000 C   0  0  0  0  0  0  0  0  0  0  0  0
    1.6500   -0.7466    0.0000 C   0  0  0  0  0  0  0  0  0  0  0  0
    2.3644    0.4909    0.0000 C   0  0  0  0  0  0  0  0  0  0  0  0
    3.0790   -1.5716    0.0000 C   0  0  0  0  0  0  0  0  0  0  0  0
    1.6500   -1.5716    0.0000 C   0  0  0  0  0  0  0  0  0  0  0  0
  1  8  2  0
  2  4  1  0
  2  8  1  0
  3  9  2  0
  3 10  1  0
  5  6  2  0
  5  7  1  0
  5  8  1  0
  6  9  1  0
  7 10  2  0
M  END
>  <ALOGPS_LOGP>  (159) 
-0.71

>  <ALOGPS_LOGS>  (159) 
-0.59

>  <ALOGPS_SOLUBILITY>  (159) 
3.49e+01 g/l

>  <DATABASE_NAME>  (159) 
drugbank

>  <DRUGBANK_ID>  (159) 
DB00951

>  <DRUG_GROUPS>  (159) 
approved; investigational

>  <EXACT_MASS>  (159) 
137.058911861

>  <FORMULA>  (159) 
C6H7N3O

>  <GENERIC_NAME>  (159) 
Isoniazid

>  <ID>  (159) 
951

>  <INCHI_IDENTIFIER>  (159) 
InChI=1S/C6H7N3O/c7-9-6(10)5-1-3-8-4-2-5/h1-4H,7H2,(H,9,10)

>  <INCHI_KEY>  (159) 
QRXWMOHMRWLFEY-UHFFFAOYSA-N

>  <INTERNATIONAL_BRANDS>  (159) 
Nicozid; Nidrazid; Nydrazid; Rimicid; Rimifon; Servizid; Tibinide

>  <JCHEM_ACCEPTOR_COUNT>  (159) 
3

>  <JCHEM_ATOM_COUNT>  (159) 
nan

>  <JCHEM_AVERAGE_POLARIZABILITY>  (159) 
13.211068752970714

>  <JCHEM_BIOAVAILABILITY>  (159) 
1

>  <JCHEM_DONOR_COUNT>  (159) 
2

>  <JCHEM_FORMAL_CHARGE>  (159) 
0

>  <JCHEM_GHOSE_FILTER>  (159) 
0

>  <JCHEM_IUPAC>  (159) 
pyridine-4-carbohydrazide

>  <JCHEM_LOGP>  (159) 
-0.6902620096666666

>  <JCHEM_MDDR_LIKE_RULE>  (159) 
0

>  <JCHEM_NUMBER_OF_RINGS>  (159) 
1

>  <JCHEM_PHYSIOLOGICAL_CHARGE>  (159) 
0

>  <JCHEM_PKA>  (159) 
nan

>  <JCHEM_PKA_STRONGEST_ACIDIC>  (159) 
13.605501981551239

>  <JCHEM_PKA_STRONGEST_BASIC>  (159) 
3.3508081159530896

>  <JCHEM_POLAR_SURFACE_AREA>  (159) 
68.01

>  <JCHEM_REFRACTIVITY>  (159) 
37.46360000000001

>  <JCHEM_ROTATABLE_BOND_COUNT>  (159) 
1

>  <JCHEM_RULE_OF_FIVE>  (159) 
1

>  <JCHEM_TRADITIONAL_IUPAC>  (159) 
isoniazid

>  <JCHEM_VEBER_RULE>  (159) 
0

>  <MOLECULAR_WEIGHT>  (159) 
137.1393

>  <PRODUCTS>  (159) 
Dom-isoniazid 300mg Tablets; IsonaRif; Isoniazid; Isoniazid Syrup 50mg/5ml; Isoniazid Tab 100mg; Isoniazid Tab 300mg; Isoniazid Tab 50mg; Isoniazide 100mg Tablets; Isotamine B 300; Isotamine Powder; Isotamine Syr Pediatric 50mg/5ml; Isotamine-100; Isotamine-300; Pdp-isoniazid; Rifamate; Rifater

>  <SALTS>  (159) 
nan

>  <SECONDARY_ACCESSION_NUMBERS>  (159) 
APRD01055; EXPT01940

>  <SMILES>  (159) 
NNC(=O)C1=CC=NC=C1

>  <SYNONYMS>  (159) 
4-pyridinecarbohydrazide; INH; Isoniazid; Isoniazida; Isonicotinic acid hydrazide; Isonicotinic hydrazide; Isonicotinohydrazide; Isonicotinoylhydrazide; Isonicotinsäurehydrazid; Isonicotinylhydrazine; Pyridine-4-carboxylic acid hydrazide

>  <ECFP_FP>  (159) 
<rdkit.DataStructs.cDataStructs.ExplicitBitVect object at 0xa26647800>

>  <pki_G>  (159) 
5.467532

>  <pki_D>  (159) 
5.908308

>  <pki_B>  (159) 
5.320586

>  <pki_A>  (159) 
5.489242

>  <SelB>  (159) 
0.146947

>  <SelA>  (159) 
-0.021709

>  <SelD>  (159) 
-0.440776

>  <AvgABSel>  (159) 
0.062619

>  <MACCS_FP>  (159) 
[0. 0. 0. 0. 0. 0. 0. 0. 0. 0. 0. 0. 0. 0. 0. 0. 0. 0. 0. 0. 0. 0. 0. 0.
 0. 0. 0. 0. 0. 0. 0. 0. 0. 0. 0. 0. 0. 0. 0. 0. 0. 0. 0. 0. 0. 0. 0. 0.
 0. 0. 0. 0. 1. 0. 0. 0. 0. 0. 0. 0. 0. 0. 0. 0. 0. 1. 0. 0. 1. 1. 0. 0.
 0. 0. 0. 0. 0. 0. 0. 0. 0. 0. 0. 0. 1. 0. 0. 0. 0. 0. 0. 0. 1. 0. 1. 1.
 0. 0. 1. 0. 0. 0. 0. 0. 0. 0. 0. 0. 0. 0. 1. 0. 0. 0. 0. 0. 0. 1. 0. 0.
 0. 1. 0. 0. 1. 0. 0. 0. 0. 0. 0. 1. 0. 0. 0. 0. 0. 1. 0. 0. 0. 0. 1. 0.
 0. 0. 0. 0. 0. 0. 0. 1. 0. 0. 1. 0. 1. 0. 1. 0. 0. 1. 1. 1. 1. 1. 0.]

>  <MACCS_pki_G>  (159) 
6.115619

>  <MACCS_pki_D>  (159) 
5.549909

>  <MACCS_pki_B>  (159) 
5.461593

>  <MACCS_pki_A>  (159) 
4.659487

>  <MACCS_SelB>  (159) 
0.654026

>  <MACCS_SelA>  (159) 
1.456132

>  <MACCS_SelD>  (159) 
0.56571

>  <MACCSAvgABSel>  (159) 
1.055079

>  <Pharm2D_FP>  (159) 
[0. 0. 0. ... 0. 0. 0.]

>  <Pharm2D_pki_G>  (159) 
5.825474

>  <Pharm2D_pki_D>  (159) 
5.645661

>  <Pharm2D_pki_B>  (159) 
5.380725

>  <Pharm2D_pki_A>  (159) 
4.732484

>  <Pharm2D_SelB>  (159) 
0.444749

>  <Pharm2D_SelA>  (159) 
1.092989

>  <Pharm2D_SelD>  (159) 
0.179813

>  <Pharm2DAvgABSel>  (159) 
0.768869

>  <QED>  (159) 
0.316579

$$$$
