DB07107
     RDKit          3D

 51 54  0  0  0  0  0  0  0  0999 V2000
   -2.0755    0.0845   -0.7795 C   0  0  2  0  0  0  0  0  0  0  0  0
   -0.9310   -0.0897   -1.7969 C   0  0  0  0  0  0  0  0  0  0  0  0
    0.3131   -0.5320   -1.0967 O   0  0  0  0  0  0  0  0  0  0  0  0
    0.9935   -1.4327   -0.4548 C   0  0  0  0  0  0  0  0  0  0  0  0
    0.7128   -2.6526    0.0362 C   0  0  0  0  0  0  0  0  0  0  0  0
    1.6727   -3.3912    0.7362 N   0  0  0  0  0  0  0  0  0  0  0  0
    2.9238   -2.8560    0.8941 C   0  0  0  0  0  0  0  0  0  0  0  0
    3.2746   -1.6396    0.4079 C   0  0  0  0  0  0  0  0  0  0  0  0
    4.6180   -1.0737    0.5783 C   0  0  0  0  0  0  0  0  0  0  0  0
    5.0319    0.1140    0.1291 C   0  0  0  0  0  0  0  0  0  0  0  0
    6.3882    0.6297    0.3254 C   0  0  0  0  0  0  0  0  0  0  0  0
    7.3850   -0.0647    1.0021 C   0  0  0  0  0  0  0  0  0  0  0  0
    8.5991    0.4955    1.1299 C   0  0  0  0  0  0  0  0  0  0  0  0
    8.9018    1.7159    0.6266 N   0  0  0  0  0  0  0  0  0  0  0  0
    7.9583    2.4042   -0.0310 C   0  0  0  0  0  0  0  0  0  0  0  0
    6.7065    1.8982   -0.1984 C   0  0  0  0  0  0  0  0  0  0  0  0
    2.2778   -0.9336   -0.2744 C   0  0  0  0  0  0  0  0  0  0  0  0
   -3.1427    0.8347   -1.5546 C   0  0  0  0  0  0  0  0  0  0  0  0
   -4.3227    1.1324   -0.7240 C   0  0  0  0  0  0  0  0  0  0  0  0
   -4.6126    2.3430   -0.1525 C   0  0  0  0  0  0  0  0  0  0  0  0
   -5.7898    2.2205    0.5427 N   0  0  0  0  0  0  0  0  0  0  0  0
   -6.2055    0.8924    0.3912 C   0  0  0  0  0  0  0  0  0  0  0  0
   -5.3057    0.2081   -0.3867 C   0  0  0  0  0  0  0  0  0  0  0  0
   -5.4943   -1.1348   -0.6852 C   0  0  0  0  0  0  0  0  0  0  0  0
   -6.6288   -1.7758   -0.1792 C   0  0  0  0  0  0  0  0  0  0  0  0
   -7.5513   -1.0945    0.6025 C   0  0  0  0  0  0  0  0  0  0  0  0
   -7.3415    0.2700    0.8986 C   0  0  0  0  0  0  0  0  0  0  0  0
   -1.5381    0.8496    0.3547 N   0  0  0  0  0  0  0  0  0  0  0  0
   -2.4466   -0.8980   -0.4619 H   0  0  0  0  0  0  0  0  0  0  0  0
   -1.2189   -0.7005   -2.6888 H   0  0  0  0  0  0  0  0  0  0  0  0
   -0.7068    0.9601   -2.1385 H   0  0  0  0  0  0  0  0  0  0  0  0
   -0.2961   -3.1494   -0.0456 H   0  0  0  0  0  0  0  0  0  0  0  0
    3.6578   -3.4692    1.4409 H   0  0  0  0  0  0  0  0  0  0  0  0
    5.2995   -1.7157    1.1212 H   0  0  0  0  0  0  0  0  0  0  0  0
    4.3544    0.7280   -0.4036 H   0  0  0  0  0  0  0  0  0  0  0  0
    7.2069   -1.0489    1.4298 H   0  0  0  0  0  0  0  0  0  0  0  0
    9.4148   -0.0506    1.6722 H   0  0  0  0  0  0  0  0  0  0  0  0
    8.2154    3.4039   -0.4421 H   0  0  0  0  0  0  0  0  0  0  0  0
    5.9682    2.4833   -0.7371 H   0  0  0  0  0  0  0  0  0  0  0  0
    2.4802    0.0426   -0.6891 H   0  0  0  0  0  0  0  0  0  0  0  0
   -2.7135    1.7651   -2.0045 H   0  0  0  0  0  0  0  0  0  0  0  0
   -3.4836    0.2266   -2.4296 H   0  0  0  0  0  0  0  0  0  0  0  0
   -4.0392    3.2773   -0.2255 H   0  0  0  0  0  0  0  0  0  0  0  0
   -6.2516    2.9564    1.0404 H   0  0  0  0  0  0  0  0  0  0  0  0
   -4.8212   -1.7054   -1.2899 H   0  0  0  0  0  0  0  0  0  0  0  0
   -6.8008   -2.8206   -0.4039 H   0  0  0  0  0  0  0  0  0  0  0  0
   -8.4395   -1.6034    0.9862 H   0  0  0  0  0  0  0  0  0  0  0  0
   -8.0412    0.8067    1.4901 H   0  0  0  0  0  0  0  0  0  0  0  0
   -1.0982    1.7207   -0.0145 H   0  0  0  0  0  0  0  0  0  0  0  0
   -2.2512    1.0672    1.0746 H   0  0  0  0  0  0  0  0  0  0  0  0
   -0.8061    0.3023    0.7882 H   0  0  0  0  0  0  0  0  0  0  0  0
  1  2  1  0
  2  3  1  0
  3  4  1  0
  4  5  2  0
  5  6  1  0
  6  7  2  0
  7  8  1  0
  8  9  1  0
  9 10  2  0
 10 11  1  0
 11 12  2  0
 12 13  1  0
 13 14  2  0
 14 15  1  0
 15 16  2  0
  8 17  2  0
  1 18  1  0
 18 19  1  0
 19 20  2  0
 20 21  1  0
 21 22  1  0
 22 23  2  0
 23 24  1  0
 24 25  2  0
 25 26  1  0
 26 27  2  0
  1 28  1  0
 17  4  1  0
 16 11  1  0
 23 19  1  0
 27 22  1  0
  1 29  1  1
  2 30  1  0
  2 31  1  0
  5 32  1  0
  7 33  1  0
  9 34  1  0
 10 35  1  0
 12 36  1  0
 13 37  1  0
 15 38  1  0
 16 39  1  0
 17 40  1  0
 18 41  1  0
 18 42  1  0
 20 43  1  0
 21 44  1  0
 24 45  1  0
 25 46  1  0
 26 47  1  0
 27 48  1  0
 28 49  1  0
 28 50  1  0
 28 51  1  0
M  CHG  1  28   1
M  END
>  <conformer_id>  (1) 
5

>  <converged>  (1) 
1

>  <energy_abs>  (1) 
146.6016579825457

>  <cluster_no>  (1) 
1

>  <cluster_centroid>  (1) 
5

>  <rms_to_centroid>  (1) 
0.0

>  <energy_delta>  (1) 
41.43406251047233

$$$$
DB07107
     RDKit          3D

 51 54  0  0  0  0  0  0  0  0999 V2000
   -2.3285    0.8745   -0.7340 C   0  0  2  0  0  0  0  0  0  0  0  0
   -0.8231    1.2505   -0.5234 C   0  0  0  0  0  0  0  0  0  0  0  0
   -0.2150   -0.1123   -0.2796 O   0  0  0  0  0  0  0  0  0  0  0  0
    0.9573   -0.7905   -0.2637 C   0  0  0  0  0  0  0  0  0  0  0  0
    0.7319   -2.1076   -0.3181 C   0  0  0  0  0  0  0  0  0  0  0  0
    1.6720   -3.1079   -0.2018 N   0  0  0  0  0  0  0  0  0  0  0  0
    2.9216   -2.7345   -0.0435 C   0  0  0  0  0  0  0  0  0  0  0  0
    3.2907   -1.3342   -0.0172 C   0  0  0  0  0  0  0  0  0  0  0  0
    4.7161   -1.0666    0.1866 C   0  0  0  0  0  0  0  0  0  0  0  0
    5.2379    0.1332    0.2821 C   0  0  0  0  0  0  0  0  0  0  0  0
    6.6929    0.4177    0.4507 C   0  0  0  0  0  0  0  0  0  0  0  0
    7.6605   -0.5916    0.5462 C   0  0  0  0  0  0  0  0  0  0  0  0
    8.9608   -0.2061    0.6963 C   0  0  0  0  0  0  0  0  0  0  0  0
    9.3859    1.0726    0.7575 N   0  0  0  0  0  0  0  0  0  0  0  0
    8.4317    2.0113    0.6615 C   0  0  0  0  0  0  0  0  0  0  0  0
    7.0836    1.7495    0.5077 C   0  0  0  0  0  0  0  0  0  0  0  0
    2.2253   -0.3254   -0.1745 C   0  0  0  0  0  0  0  0  0  0  0  0
   -2.7777   -0.0069    0.4371 C   0  0  0  0  0  0  0  0  0  0  0  0
   -4.1660   -0.4784    0.1877 C   0  0  0  0  0  0  0  0  0  0  0  0
   -4.6146   -1.7316   -0.1840 C   0  0  0  0  0  0  0  0  0  0  0  0
   -5.9986   -1.7131   -0.3358 N   0  0  0  0  0  0  0  0  0  0  0  0
   -6.4175   -0.3984   -0.0695 C   0  0  0  0  0  0  0  0  0  0  0  0
   -5.3205    0.3413    0.2546 C   0  0  0  0  0  0  0  0  0  0  0  0
   -5.4754    1.7242    0.5671 C   0  0  0  0  0  0  0  0  0  0  0  0
   -6.7382    2.2960    0.5534 C   0  0  0  0  0  0  0  0  0  0  0  0
   -7.8506    1.5010    0.2307 C   0  0  0  0  0  0  0  0  0  0  0  0
   -7.7016    0.1420   -0.0847 C   0  0  0  0  0  0  0  0  0  0  0  0
   -2.3296   -0.0182   -2.0071 N   0  0  0  0  0  0  0  0  0  0  0  0
   -2.9367    1.7135   -0.9218 H   0  0  0  0  0  0  0  0  0  0  0  0
   -0.3651    1.7110   -1.4093 H   0  0  0  0  0  0  0  0  0  0  0  0
   -0.6882    1.8840    0.3896 H   0  0  0  0  0  0  0  0  0  0  0  0
   -0.3062   -2.4847   -0.4018 H   0  0  0  0  0  0  0  0  0  0  0  0
    3.6265   -3.4864    0.0757 H   0  0  0  0  0  0  0  0  0  0  0  0
    5.3564   -1.9642    0.2515 H   0  0  0  0  0  0  0  0  0  0  0  0
    4.6094    1.0095    0.2263 H   0  0  0  0  0  0  0  0  0  0  0  0
    7.4090   -1.6079    0.5075 H   0  0  0  0  0  0  0  0  0  0  0  0
    9.7424   -0.9767    0.7767 H   0  0  0  0  0  0  0  0  0  0  0  0
    8.7911    3.0610    0.7139 H   0  0  0  0  0  0  0  0  0  0  0  0
    6.3843    2.5726    0.4393 H   0  0  0  0  0  0  0  0  0  0  0  0
    2.5459    0.7389   -0.0786 H   0  0  0  0  0  0  0  0  0  0  0  0
   -2.7301    0.5664    1.3699 H   0  0  0  0  0  0  0  0  0  0  0  0
   -2.1540   -0.9119    0.6116 H   0  0  0  0  0  0  0  0  0  0  0  0
   -4.0471   -2.6708   -0.3412 H   0  0  0  0  0  0  0  0  0  0  0  0
   -6.5810   -2.4749   -0.5675 H   0  0  0  0  0  0  0  0  0  0  0  0
   -4.6238    2.3351    0.8354 H   0  0  0  0  0  0  0  0  0  0  0  0
   -6.8711    3.3365    0.7992 H   0  0  0  0  0  0  0  0  0  0  0  0
   -8.8302    1.9544    0.2421 H   0  0  0  0  0  0  0  0  0  0  0  0
   -8.5738   -0.4533   -0.3188 H   0  0  0  0  0  0  0  0  0  0  0  0
   -1.9483   -0.9213   -1.7952 H   0  0  0  0  0  0  0  0  0  0  0  0
   -1.7500    0.3973   -2.7540 H   0  0  0  0  0  0  0  0  0  0  0  0
   -3.2707   -0.1188   -2.3217 H   0  0  0  0  0  0  0  0  0  0  0  0
  1  2  1  0
  2  3  1  0
  3  4  1  0
  4  5  2  0
  5  6  1  0
  6  7  2  0
  7  8  1  0
  8  9  1  0
  9 10  2  0
 10 11  1  0
 11 12  2  0
 12 13  1  0
 13 14  2  0
 14 15  1  0
 15 16  2  0
  8 17  2  0
  1 18  1  0
 18 19  1  0
 19 20  2  0
 20 21  1  0
 21 22  1  0
 22 23  2  0
 23 24  1  0
 24 25  2  0
 25 26  1  0
 26 27  2  0
  1 28  1  0
 17  4  1  0
 16 11  1  0
 23 19  1  0
 27 22  1  0
  1 29  1  6
  2 30  1  0
  2 31  1  0
  5 32  1  0
  7 33  1  0
  9 34  1  0
 10 35  1  0
 12 36  1  0
 13 37  1  0
 15 38  1  0
 16 39  1  0
 17 40  1  0
 18 41  1  0
 18 42  1  0
 20 43  1  0
 21 44  1  0
 24 45  1  0
 25 46  1  0
 26 47  1  0
 27 48  1  0
 28 49  1  0
 28 50  1  0
 28 51  1  0
M  CHG  1  28   1
M  END
>  <conformer_id>  (2) 
4

>  <converged>  (2) 
1

>  <energy_abs>  (2) 
142.1499088959407

>  <cluster_no>  (2) 
2

>  <cluster_centroid>  (2) 
4

>  <rms_to_centroid>  (2) 
0.0

>  <energy_delta>  (2) 
36.982313423867339

$$$$
DB07107
     RDKit          3D

 51 54  0  0  0  0  0  0  0  0999 V2000
   -2.5964   -1.9731    1.1118 C   0  0  2  0  0  0  0  0  0  0  0  0
   -1.1515   -1.5352    0.8684 C   0  0  0  0  0  0  0  0  0  0  0  0
   -0.6948   -2.2880   -0.2540 O   0  0  0  0  0  0  0  0  0  0  0  0
    0.5493   -2.0788   -0.7392 C   0  0  0  0  0  0  0  0  0  0  0  0
    0.9063   -2.8381   -1.8336 C   0  0  0  0  0  0  0  0  0  0  0  0
    2.1273   -2.7606   -2.3952 N   0  0  0  0  0  0  0  0  0  0  0  0
    3.0246   -1.9088   -1.8637 C   0  0  0  0  0  0  0  0  0  0  0  0
    2.7500   -1.1018   -0.7792 C   0  0  0  0  0  0  0  0  0  0  0  0
    3.6979   -0.1728   -0.1876 C   0  0  0  0  0  0  0  0  0  0  0  0
    4.9746   -0.0069   -0.5857 C   0  0  0  0  0  0  0  0  0  0  0  0
    5.9307    0.9306    0.0085 C   0  0  0  0  0  0  0  0  0  0  0  0
    5.6197    1.7857    1.0532 C   0  0  0  0  0  0  0  0  0  0  0  0
    6.5860    2.6371    1.5508 C   0  0  0  0  0  0  0  0  0  0  0  0
    7.8428    2.6849    1.0654 N   0  0  0  0  0  0  0  0  0  0  0  0
    8.1446    1.8534    0.0478 C   0  0  0  0  0  0  0  0  0  0  0  0
    7.2286    0.9743   -0.5001 C   0  0  0  0  0  0  0  0  0  0  0  0
    1.4713   -1.1922   -0.2147 C   0  0  0  0  0  0  0  0  0  0  0  0
   -3.4721   -1.8474   -0.1544 C   0  0  0  0  0  0  0  0  0  0  0  0
   -3.5569   -0.4619   -0.6940 C   0  0  0  0  0  0  0  0  0  0  0  0
   -2.7610    0.0875   -1.6775 C   0  0  0  0  0  0  0  0  0  0  0  0
   -3.1618    1.3792   -1.9039 N   0  0  0  0  0  0  0  0  0  0  0  0
   -4.2142    1.6661   -1.0692 C   0  0  0  0  0  0  0  0  0  0  0  0
   -4.4908    0.5371   -0.3253 C   0  0  0  0  0  0  0  0  0  0  0  0
   -5.5612    0.5820    0.5716 C   0  0  0  0  0  0  0  0  0  0  0  0
   -6.2996    1.7535    0.7161 C   0  0  0  0  0  0  0  0  0  0  0  0
   -6.0033    2.8731   -0.0314 C   0  0  0  0  0  0  0  0  0  0  0  0
   -4.9576    2.8457   -0.9426 C   0  0  0  0  0  0  0  0  0  0  0  0
   -3.1530   -1.1991    2.2693 N   0  0  0  0  0  0  0  0  0  0  0  0
   -2.5936   -3.0260    1.4125 H   0  0  0  0  0  0  0  0  0  0  0  0
   -1.0852   -0.4566    0.6637 H   0  0  0  0  0  0  0  0  0  0  0  0
   -0.5241   -1.7919    1.7270 H   0  0  0  0  0  0  0  0  0  0  0  0
    0.2132   -3.5384   -2.2857 H   0  0  0  0  0  0  0  0  0  0  0  0
    3.9908   -1.9109   -2.3690 H   0  0  0  0  0  0  0  0  0  0  0  0
    3.3332    0.4175    0.6298 H   0  0  0  0  0  0  0  0  0  0  0  0
    5.3488   -0.6007   -1.4049 H   0  0  0  0  0  0  0  0  0  0  0  0
    4.6455    1.8184    1.5010 H   0  0  0  0  0  0  0  0  0  0  0  0
    6.3782    3.3232    2.3713 H   0  0  0  0  0  0  0  0  0  0  0  0
    9.1603    1.8915   -0.3456 H   0  0  0  0  0  0  0  0  0  0  0  0
    7.5195    0.3291   -1.3140 H   0  0  0  0  0  0  0  0  0  0  0  0
    1.2479   -0.5599    0.6363 H   0  0  0  0  0  0  0  0  0  0  0  0
   -4.4727   -2.2225    0.0664 H   0  0  0  0  0  0  0  0  0  0  0  0
   -3.0783   -2.5112   -0.9285 H   0  0  0  0  0  0  0  0  0  0  0  0
   -1.9406   -0.3242   -2.2544 H   0  0  0  0  0  0  0  0  0  0  0  0
   -2.7602    2.0103   -2.5773 H   0  0  0  0  0  0  0  0  0  0  0  0
   -5.8523   -0.2883    1.1371 H   0  0  0  0  0  0  0  0  0  0  0  0
   -7.1351    1.7831    1.4140 H   0  0  0  0  0  0  0  0  0  0  0  0
   -6.6057    3.7718    0.0789 H   0  0  0  0  0  0  0  0  0  0  0  0
   -4.7417    3.7101   -1.5420 H   0  0  0  0  0  0  0  0  0  0  0  0
   -3.0583   -0.1850    2.1168 H   0  0  0  0  0  0  0  0  0  0  0  0
   -2.6353   -1.4161    3.1249 H   0  0  0  0  0  0  0  0  0  0  0  0
   -4.1337   -1.4489    2.4407 H   0  0  0  0  0  0  0  0  0  0  0  0
  1  2  1  0
  2  3  1  0
  3  4  1  0
  4  5  2  0
  5  6  1  0
  6  7  2  0
  7  8  1  0
  8  9  1  0
  9 10  2  0
 10 11  1  0
 11 12  2  0
 12 13  1  0
 13 14  2  0
 14 15  1  0
 15 16  2  0
  8 17  2  0
  1 18  1  0
 18 19  1  0
 19 20  2  0
 20 21  1  0
 21 22  1  0
 22 23  2  0
 23 24  1  0
 24 25  2  0
 25 26  1  0
 26 27  2  0
  1 28  1  0
 17  4  1  0
 16 11  1  0
 23 19  1  0
 27 22  1  0
  1 29  1  1
  2 30  1  0
  2 31  1  0
  5 32  1  0
  7 33  1  0
  9 34  1  0
 10 35  1  0
 12 36  1  0
 13 37  1  0
 15 38  1  0
 16 39  1  0
 17 40  1  0
 18 41  1  0
 18 42  1  0
 20 43  1  0
 21 44  1  0
 24 45  1  0
 25 46  1  0
 26 47  1  0
 27 48  1  0
 28 49  1  0
 28 50  1  0
 28 51  1  0
M  CHG  1  28   1
M  END
>  <conformer_id>  (3) 
3

>  <converged>  (3) 
1

>  <energy_abs>  (3) 
105.16759547207337

>  <cluster_no>  (3) 
3

>  <cluster_centroid>  (3) 
3

>  <rms_to_centroid>  (3) 
0.0

>  <energy_delta>  (3) 
0

$$$$
DB07107
     RDKit          3D

 51 54  0  0  0  0  0  0  0  0999 V2000
   -2.3268   -1.4635    1.6828 C   0  0  2  0  0  0  0  0  0  0  0  0
   -0.9200   -1.2946    1.0996 C   0  0  0  0  0  0  0  0  0  0  0  0
   -0.6430   -2.4228    0.2647 O   0  0  0  0  0  0  0  0  0  0  0  0
    0.5467   -2.4952   -0.3824 C   0  0  0  0  0  0  0  0  0  0  0  0
    0.7334   -3.5587   -1.2514 C   0  0  0  0  0  0  0  0  0  0  0  0
    1.8726   -3.7698   -1.9386 N   0  0  0  0  0  0  0  0  0  0  0  0
    2.8754   -2.8869   -1.7484 C   0  0  0  0  0  0  0  0  0  0  0  0
    2.7839   -1.7862   -0.9118 C   0  0  0  0  0  0  0  0  0  0  0  0
    3.9341   -0.8904   -0.7759 C   0  0  0  0  0  0  0  0  0  0  0  0
    3.9809    0.2080   -0.0033 C   0  0  0  0  0  0  0  0  0  0  0  0
    5.1257    1.1147    0.1394 C   0  0  0  0  0  0  0  0  0  0  0  0
    6.3301    0.9297   -0.5304 C   0  0  0  0  0  0  0  0  0  0  0  0
    7.3379    1.8356   -0.3291 C   0  0  0  0  0  0  0  0  0  0  0  0
    7.2194    2.8997    0.4878 N   0  0  0  0  0  0  0  0  0  0  0  0
    6.0569    3.0779    1.1340 C   0  0  0  0  0  0  0  0  0  0  0  0
    4.9931    2.2167    0.9898 C   0  0  0  0  0  0  0  0  0  0  0  0
    1.5858   -1.5893   -0.2218 C   0  0  0  0  0  0  0  0  0  0  0  0
   -3.4050   -1.6500    0.6064 C   0  0  0  0  0  0  0  0  0  0  0  0
   -3.4541   -0.5822   -0.4313 C   0  0  0  0  0  0  0  0  0  0  0  0
   -2.8147   -0.6254   -1.6457 C   0  0  0  0  0  0  0  0  0  0  0  0
   -3.0936    0.5186   -2.3437 N   0  0  0  0  0  0  0  0  0  0  0  0
   -3.9106    1.3067   -1.5653 C   0  0  0  0  0  0  0  0  0  0  0  0
   -4.1531    0.6448   -0.3755 C   0  0  0  0  0  0  0  0  0  0  0  0
   -4.9936    1.2635    0.5591 C   0  0  0  0  0  0  0  0  0  0  0  0
   -5.5475    2.5216    0.2779 C   0  0  0  0  0  0  0  0  0  0  0  0
   -5.2886    3.1547   -0.9195 C   0  0  0  0  0  0  0  0  0  0  0  0
   -4.4653    2.5535   -1.8686 C   0  0  0  0  0  0  0  0  0  0  0  0
   -2.6559   -0.3418    2.6026 N   0  0  0  0  0  0  0  0  0  0  0  0
   -2.3115   -2.3649    2.3085 H   0  0  0  0  0  0  0  0  0  0  0  0
   -0.8511   -0.3744    0.4981 H   0  0  0  0  0  0  0  0  0  0  0  0
   -0.1809   -1.2298    1.9070 H   0  0  0  0  0  0  0  0  0  0  0  0
   -0.0501   -4.2824   -1.4189 H   0  0  0  0  0  0  0  0  0  0  0  0
    3.7863   -3.1147   -2.3132 H   0  0  0  0  0  0  0  0  0  0  0  0
    4.7990   -1.1761   -1.3635 H   0  0  0  0  0  0  0  0  0  0  0  0
    3.1172    0.4915    0.5858 H   0  0  0  0  0  0  0  0  0  0  0  0
    6.4999    0.1024   -1.2003 H   0  0  0  0  0  0  0  0  0  0  0  0
    8.3016    1.7336   -0.8317 H   0  0  0  0  0  0  0  0  0  0  0  0
    5.9922    3.9402    1.7821 H   0  0  0  0  0  0  0  0  0  0  0  0
    4.0739    2.4034    1.5332 H   0  0  0  0  0  0  0  0  0  0  0  0
    1.4895   -0.7404    0.4367 H   0  0  0  0  0  0  0  0  0  0  0  0
   -4.3939   -1.7496    1.0900 H   0  0  0  0  0  0  0  0  0  0  0  0
   -3.2522   -2.6389    0.1099 H   0  0  0  0  0  0  0  0  0  0  0  0
   -2.1851   -1.3830   -2.1030 H   0  0  0  0  0  0  0  0  0  0  0  0
   -2.7760    0.7271   -3.2724 H   0  0  0  0  0  0  0  0  0  0  0  0
   -5.2652    0.7841    1.4844 H   0  0  0  0  0  0  0  0  0  0  0  0
   -6.2109    2.9945    1.0053 H   0  0  0  0  0  0  0  0  0  0  0  0
   -5.7485    4.1186   -1.1277 H   0  0  0  0  0  0  0  0  0  0  0  0
   -4.2884    3.0503   -2.8154 H   0  0  0  0  0  0  0  0  0  0  0  0
   -3.6475   -0.3648    2.8706 H   0  0  0  0  0  0  0  0  0  0  0  0
   -2.1196   -0.3911    3.4807 H   0  0  0  0  0  0  0  0  0  0  0  0
   -2.4834    0.5754    2.1633 H   0  0  0  0  0  0  0  0  0  0  0  0
  1  2  1  0
  2  3  1  0
  3  4  1  0
  4  5  2  0
  5  6  1  0
  6  7  2  0
  7  8  1  0
  8  9  1  0
  9 10  2  0
 10 11  1  0
 11 12  2  0
 12 13  1  0
 13 14  2  0
 14 15  1  0
 15 16  2  0
  8 17  2  0
  1 18  1  0
 18 19  1  0
 19 20  2  0
 20 21  1  0
 21 22  1  0
 22 23  2  0
 23 24  1  0
 24 25  2  0
 25 26  1  0
 26 27  2  0
  1 28  1  0
 17  4  1  0
 16 11  1  0
 23 19  1  0
 27 22  1  0
  1 29  1  1
  2 30  1  0
  2 31  1  0
  5 32  1  0
  7 33  1  0
  9 34  1  0
 10 35  1  0
 12 36  1  0
 13 37  1  0
 15 38  1  0
 16 39  1  0
 17 40  1  0
 18 41  1  0
 18 42  1  0
 20 43  1  0
 21 44  1  0
 24 45  1  0
 25 46  1  0
 26 47  1  0
 27 48  1  0
 28 49  1  0
 28 50  1  0
 28 51  1  0
M  CHG  1  28   1
M  END
>  <conformer_id>  (4) 
2

>  <converged>  (4) 
1

>  <energy_abs>  (4) 
105.48117840263684

>  <cluster_no>  (4) 
4

>  <cluster_centroid>  (4) 
2

>  <rms_to_centroid>  (4) 
0.0

>  <energy_delta>  (4) 
0.31358293056347009

$$$$
DB07107
     RDKit          3D

 51 54  0  0  0  0  0  0  0  0999 V2000
   -1.8550   -0.0375   -0.9667 C   0  0  2  0  0  0  0  0  0  0  0  0
   -0.3847   -0.3614   -0.7577 C   0  0  0  0  0  0  0  0  0  0  0  0
   -0.2564   -1.7837   -0.9279 O   0  0  0  0  0  0  0  0  0  0  0  0
    1.0079   -2.2566   -0.6719 C   0  0  0  0  0  0  0  0  0  0  0  0
    1.2295   -3.6251   -0.7453 C   0  0  0  0  0  0  0  0  0  0  0  0
    2.4292   -4.2282   -0.5613 N   0  0  0  0  0  0  0  0  0  0  0  0
    3.4579   -3.4086   -0.2765 C   0  0  0  0  0  0  0  0  0  0  0  0
    3.3633   -2.0022   -0.1580 C   0  0  0  0  0  0  0  0  0  0  0  0
    4.5309   -1.1916    0.1505 C   0  0  0  0  0  0  0  0  0  0  0  0
    4.5313    0.1728    0.2823 C   0  0  0  0  0  0  0  0  0  0  0  0
    5.7141    0.9596    0.5919 C   0  0  0  0  0  0  0  0  0  0  0  0
    6.9771    0.4147    0.7899 C   0  0  0  0  0  0  0  0  0  0  0  0
    8.0287    1.2604    1.0804 C   0  0  0  0  0  0  0  0  0  0  0  0
    7.9163    2.6116    1.1881 N   0  0  0  0  0  0  0  0  0  0  0  0
    6.6834    3.1133    0.9932 C   0  0  0  0  0  0  0  0  0  0  0  0
    5.5643    2.3629    0.6984 C   0  0  0  0  0  0  0  0  0  0  0  0
    2.1056   -1.4561   -0.3626 C   0  0  0  0  0  0  0  0  0  0  0  0
   -2.6912   -0.7502    0.1157 C   0  0  0  0  0  0  0  0  0  0  0  0
   -4.1365   -0.4611    0.0040 C   0  0  0  0  0  0  0  0  0  0  0  0
   -5.1226   -1.3338   -0.4253 C   0  0  0  0  0  0  0  0  0  0  0  0
   -6.3239   -0.6978   -0.3167 N   0  0  0  0  0  0  0  0  0  0  0  0
   -6.1370    0.5850    0.1399 C   0  0  0  0  0  0  0  0  0  0  0  0
   -4.7775    0.7680    0.3569 C   0  0  0  0  0  0  0  0  0  0  0  0
   -4.3113    2.0092    0.8607 C   0  0  0  0  0  0  0  0  0  0  0  0
   -5.2281    3.0138    1.1132 C   0  0  0  0  0  0  0  0  0  0  0  0
   -6.5865    2.8127    0.8916 C   0  0  0  0  0  0  0  0  0  0  0  0
   -7.0725    1.6033    0.4091 C   0  0  0  0  0  0  0  0  0  0  0  0
   -2.2491   -0.5078   -2.3416 N   0  0  0  0  0  0  0  0  0  0  0  0
   -2.0411    1.0488   -0.9624 H   0  0  0  0  0  0  0  0  0  0  0  0
   -0.0877   -0.0500    0.2485 H   0  0  0  0  0  0  0  0  0  0  0  0
    0.2231    0.1623   -1.5145 H   0  0  0  0  0  0  0  0  0  0  0  0
    0.4271   -4.3242   -0.9635 H   0  0  0  0  0  0  0  0  0  0  0  0
    4.4109   -3.9096   -0.1394 H   0  0  0  0  0  0  0  0  0  0  0  0
    5.4236   -1.7705    0.2696 H   0  0  0  0  0  0  0  0  0  0  0  0
    3.6302    0.7536    0.1619 H   0  0  0  0  0  0  0  0  0  0  0  0
    7.1739   -0.6623    0.7260 H   0  0  0  0  0  0  0  0  0  0  0  0
    9.0218    0.8797    1.2415 H   0  0  0  0  0  0  0  0  0  0  0  0
    6.6162    4.2013    1.0863 H   0  0  0  0  0  0  0  0  0  0  0  0
    4.6099    2.8551    0.5583 H   0  0  0  0  0  0  0  0  0  0  0  0
    1.9916   -0.3854   -0.2779 H   0  0  0  0  0  0  0  0  0  0  0  0
   -2.3683   -0.4198    1.1013 H   0  0  0  0  0  0  0  0  0  0  0  0
   -2.5182   -1.8358    0.0906 H   0  0  0  0  0  0  0  0  0  0  0  0
   -5.1015   -2.3729   -0.7445 H   0  0  0  0  0  0  0  0  0  0  0  0
   -7.2369   -1.1023   -0.5175 H   0  0  0  0  0  0  0  0  0  0  0  0
   -3.2526    2.1817    1.0714 H   0  0  0  0  0  0  0  0  0  0  0  0
   -4.8792    3.9733    1.5032 H   0  0  0  0  0  0  0  0  0  0  0  0
   -7.2821    3.6340    1.1177 H   0  0  0  0  0  0  0  0  0  0  0  0
   -8.1382    1.4576    0.2596 H   0  0  0  0  0  0  0  0  0  0  0  0
   -1.9415    0.1351   -3.0920 H   0  0  0  0  0  0  0  0  0  0  0  0
   -1.8197   -1.4261   -2.5378 H   0  0  0  0  0  0  0  0  0  0  0  0
   -3.2684   -0.6092   -2.4298 H   0  0  0  0  0  0  0  0  0  0  0  0
  1  2  1  0
  2  3  1  0
  3  4  1  0
  4  5  2  0
  5  6  1  0
  6  7  2  0
  7  8  1  0
  8  9  1  0
  9 10  2  0
 10 11  1  0
 11 12  2  0
 12 13  1  0
 13 14  2  0
 14 15  1  0
 15 16  2  0
  8 17  2  0
  1 18  1  0
 18 19  1  0
 19 20  2  0
 20 21  1  0
 21 22  1  0
 22 23  2  0
 23 24  1  0
 24 25  2  0
 25 26  1  0
 26 27  2  0
  1 28  1  0
 17  4  1  0
 16 11  1  0
 23 19  1  0
 27 22  1  0
  1 29  1  6
  2 30  1  0
  2 31  1  0
  5 32  1  0
  7 33  1  0
  9 34  1  0
 10 35  1  0
 12 36  1  0
 13 37  1  0
 15 38  1  0
 16 39  1  0
 17 40  1  0
 18 41  1  0
 18 42  1  0
 20 43  1  0
 21 44  1  0
 24 45  1  0
 25 46  1  0
 26 47  1  0
 27 48  1  0
 28 49  1  0
 28 50  1  0
 28 51  1  0
M  CHG  1  28   1
M  END
>  <conformer_id>  (5) 
1

>  <converged>  (5) 
1

>  <energy_abs>  (5) 
99.98382243939064

>  <cluster_no>  (5) 
5

>  <cluster_centroid>  (5) 
1

>  <rms_to_centroid>  (5) 
0.0

>  <energy_delta>  (5) 
-5.1837730326827369

$$$$
