DB12964
     RDKit          3D

 43 46  0  0  0  0  0  0  0  0999 V2000
    0.6176    0.7862   -0.3513 N   0  0  0  0  0  0  0  0  0  0  0  0
    0.8826    2.0667    0.0475 C   0  0  0  0  0  0  0  0  0  0  0  0
    2.0549    2.8044    0.1607 C   0  0  0  0  0  0  0  0  0  0  0  0
    1.9807    4.1107    0.6416 C   0  0  0  0  0  0  0  0  0  0  0  0
    0.7558    4.6588    0.9874 C   0  0  0  0  0  0  0  0  0  0  0  0
   -0.4216    3.9103    0.8636 C   0  0  0  0  0  0  0  0  0  0  0  0
   -0.3427    2.5972    0.3846 C   0  0  0  0  0  0  0  0  0  0  0  0
   -1.3219    1.6729    0.1712 N   0  0  0  0  0  0  0  0  0  0  0  0
   -0.7455    0.5756   -0.2778 C   0  0  0  0  0  0  0  0  0  0  0  0
   -1.3372   -0.6125   -0.5679 N   0  0  0  0  0  0  0  0  0  0  0  0
   -2.0171   -1.3437    0.5177 C   0  0  0  0  0  0  0  0  0  0  0  0
   -3.4575   -1.7534    0.1474 C   0  0  0  0  0  0  0  0  0  0  0  0
   -4.0498   -0.8077   -0.8460 N   0  0  0  0  0  0  0  0  0  0  0  0
   -3.3003   -0.7658   -2.1348 C   0  0  0  0  0  0  0  0  0  0  0  0
   -1.7740   -0.9172   -1.9412 C   0  0  0  0  0  0  0  0  0  0  0  0
    1.5970   -0.1569   -0.8487 C   0  0  0  0  0  0  0  0  0  0  0  0
    2.2186   -1.0129    0.2238 C   0  0  0  0  0  0  0  0  0  0  0  0
    1.6722   -2.2428    0.5712 C   0  0  0  0  0  0  0  0  0  0  0  0
    2.2616   -3.0405    1.5422 C   0  0  0  0  0  0  0  0  0  0  0  0
    3.4196   -2.6229    2.1865 C   0  0  0  0  0  0  0  0  0  0  0  0
    3.9844   -1.4006    1.8463 C   0  0  0  0  0  0  0  0  0  0  0  0
    3.3852   -0.6035    0.8749 C   0  0  0  0  0  0  0  0  0  0  0  0
    3.0177    2.4078   -0.0984 H   0  0  0  0  0  0  0  0  0  0  0  0
    2.8897    4.7124    0.7500 H   0  0  0  0  0  0  0  0  0  0  0  0
    0.7192    5.6839    1.3548 H   0  0  0  0  0  0  0  0  0  0  0  0
   -1.3597    4.3493    1.1375 H   0  0  0  0  0  0  0  0  0  0  0  0
   -2.0146   -0.7461    1.4378 H   0  0  0  0  0  0  0  0  0  0  0  0
   -1.4668   -2.2651    0.7503 H   0  0  0  0  0  0  0  0  0  0  0  0
   -4.1040   -1.7488    1.0312 H   0  0  0  0  0  0  0  0  0  0  0  0
   -3.4896   -2.7676   -0.2871 H   0  0  0  0  0  0  0  0  0  0  0  0
   -5.0288   -1.0250   -1.0151 H   0  0  0  0  0  0  0  0  0  0  0  0
   -4.0165    0.1427   -0.4319 H   0  0  0  0  0  0  0  0  0  0  0  0
   -3.6727   -1.5719   -2.7811 H   0  0  0  0  0  0  0  0  0  0  0  0
   -3.5642    0.1850   -2.6025 H   0  0  0  0  0  0  0  0  0  0  0  0
   -1.5071   -1.9624   -2.1664 H   0  0  0  0  0  0  0  0  0  0  0  0
   -1.2294   -0.3215   -2.6886 H   0  0  0  0  0  0  0  0  0  0  0  0
    2.3652    0.4131   -1.3984 H   0  0  0  0  0  0  0  0  0  0  0  0
    1.1096   -0.7851   -1.6136 H   0  0  0  0  0  0  0  0  0  0  0  0
    0.7961   -2.6144    0.0711 H   0  0  0  0  0  0  0  0  0  0  0  0
    1.8370   -4.0018    1.8066 H   0  0  0  0  0  0  0  0  0  0  0  0
    3.8932   -3.2450    2.9449 H   0  0  0  0  0  0  0  0  0  0  0  0
    4.8926   -1.0757    2.3353 H   0  0  0  0  0  0  0  0  0  0  0  0
    3.8704    0.3339    0.6208 H   0  0  0  0  0  0  0  0  0  0  0  0
  1  2  1  0
  2  3  2  0
  3  4  1  0
  4  5  2  0
  5  6  1  0
  6  7  2  0
  7  8  1  0
  8  9  2  0
  9 10  1  0
 10 11  1  0
 11 12  1  0
 12 13  1  0
 13 14  1  0
 14 15  1  0
  1 16  1  0
 16 17  1  0
 17 18  2  0
 18 19  1  0
 19 20  2  0
 20 21  1  0
 21 22  2  0
  9  1  1  0
  7  2  1  0
 15 10  1  0
 22 17  1  0
  3 23  1  0
  4 24  1  0
  5 25  1  0
  6 26  1  0
 11 27  1  0
 11 28  1  0
 12 29  1  0
 12 30  1  0
 13 31  1  0
 13 32  1  0
 14 33  1  0
 14 34  1  0
 15 35  1  0
 15 36  1  0
 16 37  1  0
 16 38  1  0
 18 39  1  0
 19 40  1  0
 20 41  1  0
 21 42  1  0
 22 43  1  0
M  CHG  1  13   1
M  END
>  <conformer_id>  (1) 
5

>  <converged>  (1) 
1

>  <energy_abs>  (1) 
112.6623826113348

>  <cluster_no>  (1) 
1

>  <cluster_centroid>  (1) 
5

>  <rms_to_centroid>  (1) 
0.0

>  <energy_delta>  (1) 
0

$$$$
DB12964
     RDKit          3D

 43 46  0  0  0  0  0  0  0  0999 V2000
    0.2734    0.6711    0.6423 N   0  0  0  0  0  0  0  0  0  0  0  0
    0.7623    1.9601    0.5291 C   0  0  0  0  0  0  0  0  0  0  0  0
    1.7493    2.6613    1.2155 C   0  0  0  0  0  0  0  0  0  0  0  0
    1.9944    3.9857    0.8797 C   0  0  0  0  0  0  0  0  0  0  0  0
    1.2474    4.5915   -0.1122 C   0  0  0  0  0  0  0  0  0  0  0  0
    0.2413    3.8898   -0.7804 C   0  0  0  0  0  0  0  0  0  0  0  0
    0.0050    2.5477   -0.4504 C   0  0  0  0  0  0  0  0  0  0  0  0
   -0.9307    1.6504   -0.9066 N   0  0  0  0  0  0  0  0  0  0  0  0
   -0.8106    0.5533   -0.2021 C   0  0  0  0  0  0  0  0  0  0  0  0
   -1.7479   -0.4657   -0.1326 N   0  0  0  0  0  0  0  0  0  0  0  0
   -1.5677   -1.7599   -0.8199 C   0  0  0  0  0  0  0  0  0  0  0  0
   -2.9165   -2.3510   -1.3293 C   0  0  0  0  0  0  0  0  0  0  0  0
   -3.7077   -1.3455   -2.0983 N   0  0  0  0  0  0  0  0  0  0  0  0
   -3.8440   -0.0248   -1.3975 C   0  0  0  0  0  0  0  0  0  0  0  0
   -3.1442   -0.0162   -0.0187 C   0  0  0  0  0  0  0  0  0  0  0  0
    0.6659   -0.2502    1.6825 C   0  0  0  0  0  0  0  0  0  0  0  0
    1.9239   -1.0206    1.3892 C   0  0  0  0  0  0  0  0  0  0  0  0
    1.9236   -2.1400    0.5580 C   0  0  0  0  0  0  0  0  0  0  0  0
    3.0766   -2.8723    0.3408 C   0  0  0  0  0  0  0  0  0  0  0  0
    4.2723   -2.4964    0.9420 C   0  0  0  0  0  0  0  0  0  0  0  0
    4.2946   -1.3723    1.7585 C   0  0  0  0  0  0  0  0  0  0  0  0
    3.1366   -0.6448    1.9834 C   0  0  0  0  0  0  0  0  0  0  0  0
    2.3159    2.2193    2.0035 H   0  0  0  0  0  0  0  0  0  0  0  0
    2.7800    4.5468    1.3950 H   0  0  0  0  0  0  0  0  0  0  0  0
    1.4593    5.6185   -0.3734 H   0  0  0  0  0  0  0  0  0  0  0  0
   -0.3449    4.3872   -1.5339 H   0  0  0  0  0  0  0  0  0  0  0  0
   -1.1518   -2.5043   -0.1264 H   0  0  0  0  0  0  0  0  0  0  0  0
   -0.8596   -1.6561   -1.6454 H   0  0  0  0  0  0  0  0  0  0  0  0
   -3.5269   -2.6910   -0.4741 H   0  0  0  0  0  0  0  0  0  0  0  0
   -2.7503   -3.2051   -1.9851 H   0  0  0  0  0  0  0  0  0  0  0  0
   -4.6491   -1.7197   -2.2600 H   0  0  0  0  0  0  0  0  0  0  0  0
   -3.2665   -1.1873   -3.0199 H   0  0  0  0  0  0  0  0  0  0  0  0
   -4.9083    0.1794   -1.2601 H   0  0  0  0  0  0  0  0  0  0  0  0
   -3.4270    0.7154   -2.0782 H   0  0  0  0  0  0  0  0  0  0  0  0
   -3.1857    0.9847    0.4240 H   0  0  0  0  0  0  0  0  0  0  0  0
   -3.6876   -0.6888    0.6764 H   0  0  0  0  0  0  0  0  0  0  0  0
   -0.1670   -0.9313    1.8897 H   0  0  0  0  0  0  0  0  0  0  0  0
    0.7793    0.3410    2.5984 H   0  0  0  0  0  0  0  0  0  0  0  0
    1.0240   -2.4651    0.0751 H   0  0  0  0  0  0  0  0  0  0  0  0
    3.0646   -3.7523   -0.2876 H   0  0  0  0  0  0  0  0  0  0  0  0
    5.1789   -3.0820    0.7959 H   0  0  0  0  0  0  0  0  0  0  0  0
    5.2265   -1.0770    2.2315 H   0  0  0  0  0  0  0  0  0  0  0  0
    3.1989    0.2166    2.6376 H   0  0  0  0  0  0  0  0  0  0  0  0
  1  2  1  0
  2  3  2  0
  3  4  1  0
  4  5  2  0
  5  6  1  0
  6  7  2  0
  7  8  1  0
  8  9  2  0
  9 10  1  0
 10 11  1  0
 11 12  1  0
 12 13  1  0
 13 14  1  0
 14 15  1  0
  1 16  1  0
 16 17  1  0
 17 18  2  0
 18 19  1  0
 19 20  2  0
 20 21  1  0
 21 22  2  0
  9  1  1  0
  7  2  1  0
 15 10  1  0
 22 17  1  0
  3 23  1  0
  4 24  1  0
  5 25  1  0
  6 26  1  0
 11 27  1  0
 11 28  1  0
 12 29  1  0
 12 30  1  0
 13 31  1  0
 13 32  1  0
 14 33  1  0
 14 34  1  0
 15 35  1  0
 15 36  1  0
 16 37  1  0
 16 38  1  0
 18 39  1  0
 19 40  1  0
 20 41  1  0
 21 42  1  0
 22 43  1  0
M  CHG  1  13   1
M  END
>  <conformer_id>  (2) 
4

>  <converged>  (2) 
1

>  <energy_abs>  (2) 
118.53219920392057

>  <cluster_no>  (2) 
2

>  <cluster_centroid>  (2) 
4

>  <rms_to_centroid>  (2) 
0.0

>  <energy_delta>  (2) 
5.8698165925857637

$$$$
DB12964
     RDKit          3D

 43 46  0  0  0  0  0  0  0  0999 V2000
    0.6293    0.8463   -0.2451 N   0  0  0  0  0  0  0  0  0  0  0  0
    0.8607    2.1190    0.2051 C   0  0  0  0  0  0  0  0  0  0  0  0
    2.0156    2.8547    0.4387 C   0  0  0  0  0  0  0  0  0  0  0  0
    1.9049    4.1506    0.9276 C   0  0  0  0  0  0  0  0  0  0  0  0
    0.6487    4.7076    1.1598 C   0  0  0  0  0  0  0  0  0  0  0  0
   -0.5096    3.9734    0.9095 C   0  0  0  0  0  0  0  0  0  0  0  0
   -0.4003    2.6651    0.4317 C   0  0  0  0  0  0  0  0  0  0  0  0
   -1.3530    1.7443    0.1128 N   0  0  0  0  0  0  0  0  0  0  0  0
   -0.7302    0.6752   -0.3099 C   0  0  0  0  0  0  0  0  0  0  0  0
   -1.2866   -0.5160   -0.7244 N   0  0  0  0  0  0  0  0  0  0  0  0
   -2.0830   -1.2640    0.2551 C   0  0  0  0  0  0  0  0  0  0  0  0
   -3.5937   -1.1162    0.0037 C   0  0  0  0  0  0  0  0  0  0  0  0
   -3.9573   -1.4766   -1.4105 N   0  0  0  0  0  0  0  0  0  0  0  0
   -2.7811   -1.7287   -2.2951 C   0  0  0  0  0  0  0  0  0  0  0  0
   -1.7340   -0.6050   -2.1286 C   0  0  0  0  0  0  0  0  0  0  0  0
    1.6238   -0.0926   -0.7081 C   0  0  0  0  0  0  0  0  0  0  0  0
    2.1909   -0.9509    0.3807 C   0  0  0  0  0  0  0  0  0  0  0  0
    3.3772   -0.5774    1.0075 C   0  0  0  0  0  0  0  0  0  0  0  0
    3.9556   -1.3793    1.9775 C   0  0  0  0  0  0  0  0  0  0  0  0
    3.3637   -2.5684    2.3541 C   0  0  0  0  0  0  0  0  0  0  0  0
    2.1827   -2.9475    1.7411 C   0  0  0  0  0  0  0  0  0  0  0  0
    1.5995   -2.1461    0.7699 C   0  0  0  0  0  0  0  0  0  0  0  0
    2.9868    2.4331    0.2565 H   0  0  0  0  0  0  0  0  0  0  0  0
    2.8167    4.7276    1.1322 H   0  0  0  0  0  0  0  0  0  0  0  0
    0.6021    5.7241    1.5418 H   0  0  0  0  0  0  0  0  0  0  0  0
   -1.4664    4.4330    1.0966 H   0  0  0  0  0  0  0  0  0  0  0  0
   -1.8497   -0.9527    1.2724 H   0  0  0  0  0  0  0  0  0  0  0  0
   -1.8363   -2.3506    0.2136 H   0  0  0  0  0  0  0  0  0  0  0  0
   -3.9348   -0.0921    0.1726 H   0  0  0  0  0  0  0  0  0  0  0  0
   -4.1505   -1.7784    0.6706 H   0  0  0  0  0  0  0  0  0  0  0  0
   -4.5351   -0.7055   -1.7930 H   0  0  0  0  0  0  0  0  0  0  0  0
   -4.5520   -2.3118   -1.4003 H   0  0  0  0  0  0  0  0  0  0  0  0
   -3.1719   -1.7512   -3.3187 H   0  0  0  0  0  0  0  0  0  0  0  0
   -2.3605   -2.7126   -2.0428 H   0  0  0  0  0  0  0  0  0  0  0  0
   -2.1774    0.3584   -2.4117 H   0  0  0  0  0  0  0  0  0  0  0  0
   -0.8959   -0.8220   -2.7985 H   0  0  0  0  0  0  0  0  0  0  0  0
    1.1618   -0.7286   -1.4747 H   0  0  0  0  0  0  0  0  0  0  0  0
    2.4088    0.4779   -1.2214 H   0  0  0  0  0  0  0  0  0  0  0  0
    3.8835    0.3345    0.7276 H   0  0  0  0  0  0  0  0  0  0  0  0
    4.8825   -1.0809    2.4388 H   0  0  0  0  0  0  0  0  0  0  0  0
    3.8337   -3.1993    3.1057 H   0  0  0  0  0  0  0  0  0  0  0  0
    1.7366   -3.8800    2.0289 H   0  0  0  0  0  0  0  0  0  0  0  0
    0.6944   -2.4901    0.3072 H   0  0  0  0  0  0  0  0  0  0  0  0
  1  2  1  0
  2  3  2  0
  3  4  1  0
  4  5  2  0
  5  6  1  0
  6  7  2  0
  7  8  1  0
  8  9  2  0
  9 10  1  0
 10 11  1  0
 11 12  1  0
 12 13  1  0
 13 14  1  0
 14 15  1  0
  1 16  1  0
 16 17  1  0
 17 18  2  0
 18 19  1  0
 19 20  2  0
 20 21  1  0
 21 22  2  0
  9  1  1  0
  7  2  1  0
 15 10  1  0
 22 17  1  0
  3 23  1  0
  4 24  1  0
  5 25  1  0
  6 26  1  0
 11 27  1  0
 11 28  1  0
 12 29  1  0
 12 30  1  0
 13 31  1  0
 13 32  1  0
 14 33  1  0
 14 34  1  0
 15 35  1  0
 15 36  1  0
 16 37  1  0
 16 38  1  0
 18 39  1  0
 19 40  1  0
 20 41  1  0
 21 42  1  0
 22 43  1  0
M  CHG  1  13   1
M  END
>  <conformer_id>  (3) 
3

>  <converged>  (3) 
1

>  <energy_abs>  (3) 
115.8792357805345

>  <cluster_no>  (3) 
3

>  <cluster_centroid>  (3) 
3

>  <rms_to_centroid>  (3) 
0.0

>  <energy_delta>  (3) 
3.2168531691996947

$$$$
DB12964
     RDKit          3D

 43 46  0  0  0  0  0  0  0  0999 V2000
    0.6971    0.8825   -0.3816 N   0  0  0  0  0  0  0  0  0  0  0  0
    1.0628    2.1870   -0.1114 C   0  0  0  0  0  0  0  0  0  0  0  0
    2.2955    2.7819    0.0259 C   0  0  0  0  0  0  0  0  0  0  0  0
    2.3213    4.1686    0.3139 C   0  0  0  0  0  0  0  0  0  0  0  0
    1.1591    4.9052    0.4499 C   0  0  0  0  0  0  0  0  0  0  0  0
   -0.0883    4.2833    0.3041 C   0  0  0  0  0  0  0  0  0  0  0  0
   -0.1210    2.8996    0.0146 C   0  0  0  0  0  0  0  0  0  0  0  0
   -1.1834    2.0600   -0.1847 N   0  0  0  0  0  0  0  0  0  0  0  0
   -0.7230    0.8664   -0.4214 C   0  0  0  0  0  0  0  0  0  0  0  0
   -1.4133   -0.2412   -0.6515 N   0  0  0  0  0  0  0  0  0  0  0  0
   -1.7843   -0.6017   -2.0266 C   0  0  0  0  0  0  0  0  0  0  0  0
   -2.4797   -1.9732   -2.1124 C   0  0  0  0  0  0  0  0  0  0  0  0
   -3.7409   -1.9872   -1.2135 N   0  0  0  0  0  0  0  0  0  0  0  0
   -3.6376   -1.0713    0.0197 C   0  0  0  0  0  0  0  0  0  0  0  0
   -2.1976   -0.8505    0.4464 C   0  0  0  0  0  0  0  0  0  0  0  0
    1.6332   -0.2195   -0.6853 C   0  0  0  0  0  0  0  0  0  0  0  0
    1.9956   -1.0242    0.5647 C   0  0  0  0  0  0  0  0  0  0  0  0
    1.3658   -2.2331    0.8169 C   0  0  0  0  0  0  0  0  0  0  0  0
    1.6964   -3.0138    1.9361 C   0  0  0  0  0  0  0  0  0  0  0  0
    2.6866   -2.5873    2.8237 C   0  0  0  0  0  0  0  0  0  0  0  0
    3.3286   -1.3697    2.5840 C   0  0  0  0  0  0  0  0  0  0  0  0
    2.9913   -0.6081    1.4691 C   0  0  0  0  0  0  0  0  0  0  0  0
    3.1853    2.2081   -0.0885 H   0  0  0  0  0  0  0  0  0  0  0  0
    3.2936    4.6377    0.4221 H   0  0  0  0  0  0  0  0  0  0  0  0
    1.2309    5.9760    0.6704 H   0  0  0  0  0  0  0  0  0  0  0  0
   -0.9869    4.8872    0.4148 H   0  0  0  0  0  0  0  0  0  0  0  0
   -2.4636    0.1157   -2.4743 H   0  0  0  0  0  0  0  0  0  0  0  0
   -0.8699   -0.6570   -2.6162 H   0  0  0  0  0  0  0  0  0  0  0  0
   -2.8402   -2.1723   -3.1033 H   0  0  0  0  0  0  0  0  0  0  0  0
   -1.8493   -2.7874   -1.7691 H   0  0  0  0  0  0  0  0  0  0  0  0
   -4.5155   -1.6484   -1.7722 H   0  0  0  0  0  0  0  0  0  0  0  0
   -3.8979   -2.9273   -0.8975 H   0  0  0  0  0  0  0  0  0  0  0  0
   -4.2151   -1.5662    0.7945 H   0  0  0  0  0  0  0  0  0  0  0  0
   -4.0775   -0.1191   -0.2717 H   0  0  0  0  0  0  0  0  0  0  0  0
   -1.7440   -1.8248    0.7301 H   0  0  0  0  0  0  0  0  0  0  0  0
   -2.2041   -0.2429    1.3282 H   0  0  0  0  0  0  0  0  0  0  0  0
    2.5277    0.1843   -1.0983 H   0  0  0  0  0  0  0  0  0  0  0  0
    1.1946   -0.8708   -1.4191 H   0  0  0  0  0  0  0  0  0  0  0  0
    0.5992   -2.5966    0.1569 H   0  0  0  0  0  0  0  0  0  0  0  0
    1.2050   -3.9469    2.1109 H   0  0  0  0  0  0  0  0  0  0  0  0
    2.9522   -3.1877    3.6682 H   0  0  0  0  0  0  0  0  0  0  0  0
    4.0982   -1.0404    3.2671 H   0  0  0  0  0  0  0  0  0  0  0  0
    3.5131    0.3250    1.3229 H   0  0  0  0  0  0  0  0  0  0  0  0
  1  2  1  0
  2  3  2  0
  3  4  1  0
  4  5  2  0
  5  6  1  0
  6  7  2  0
  7  8  1  0
  8  9  2  0
  9 10  1  0
 10 11  1  0
 11 12  1  0
 12 13  1  0
 13 14  1  0
 14 15  1  0
  1 16  1  0
 16 17  1  0
 17 18  2  0
 18 19  1  0
 19 20  2  0
 20 21  1  0
 21 22  2  0
  9  1  1  0
  7  2  1  0
 15 10  1  0
 22 17  1  0
  3 23  1  0
  4 24  1  0
  5 25  1  0
  6 26  1  0
 11 27  1  0
 11 28  1  0
 12 29  1  0
 12 30  1  0
 13 31  1  0
 13 32  1  0
 14 33  1  0
 14 34  1  0
 15 35  1  0
 15 36  1  0
 16 37  1  0
 16 38  1  0
 18 39  1  0
 19 40  1  0
 20 41  1  0
 21 42  1  0
 22 43  1  0
M  CHG  1  13   1
M  END
>  <conformer_id>  (4) 
2

>  <converged>  (4) 
1

>  <energy_abs>  (4) 
124.88038687166623

>  <cluster_no>  (4) 
4

>  <cluster_centroid>  (4) 
2

>  <rms_to_centroid>  (4) 
0.0

>  <energy_delta>  (4) 
12.218004260331426

$$$$
DB12964
     RDKit          3D

 43 46  0  0  0  0  0  0  0  0999 V2000
    0.6358    0.9626   -0.3499 N   0  0  0  0  0  0  0  0  0  0  0  0
    1.0003    2.2441    0.0402 C   0  0  0  0  0  0  0  0  0  0  0  0
    2.2200    2.8628    0.3027 C   0  0  0  0  0  0  0  0  0  0  0  0
    2.2214    4.2039    0.6922 C   0  0  0  0  0  0  0  0  0  0  0  0
    1.0303    4.9114    0.8151 C   0  0  0  0  0  0  0  0  0  0  0  0
   -0.1724    4.2820    0.5478 C   0  0  0  0  0  0  0  0  0  0  0  0
   -0.1710    2.9488    0.1575 C   0  0  0  0  0  0  0  0  0  0  0  0
   -1.1986    2.1342   -0.1703 N   0  0  0  0  0  0  0  0  0  0  0  0
   -0.7271    0.9448   -0.4814 C   0  0  0  0  0  0  0  0  0  0  0  0
   -1.5652   -0.0931   -0.8555 N   0  0  0  0  0  0  0  0  0  0  0  0
   -1.1907   -1.3585   -1.4580 C   0  0  0  0  0  0  0  0  0  0  0  0
   -2.4604   -2.1224   -1.9467 C   0  0  0  0  0  0  0  0  0  0  0  0
   -3.3571   -2.3197   -0.7644 N   0  0  0  0  0  0  0  0  0  0  0  0
   -3.7694   -1.0202   -0.1623 C   0  0  0  0  0  0  0  0  0  0  0  0
   -3.0181    0.1732   -0.7946 C   0  0  0  0  0  0  0  0  0  0  0  0
    1.6372   -0.0457   -0.6339 C   0  0  0  0  0  0  0  0  0  0  0  0
    1.9703   -0.9640    0.5122 C   0  0  0  0  0  0  0  0  0  0  0  0
    2.4227   -0.5176    1.7481 C   0  0  0  0  0  0  0  0  0  0  0  0
    2.8352   -1.3980    2.7394 C   0  0  0  0  0  0  0  0  0  0  0  0
    2.8004   -2.7574    2.5133 C   0  0  0  0  0  0  0  0  0  0  0  0
    2.3614   -3.2275    1.2986 C   0  0  0  0  0  0  0  0  0  0  0  0
    1.9583   -2.3326    0.2993 C   0  0  0  0  0  0  0  0  0  0  0  0
    3.1551    2.3360    0.2149 H   0  0  0  0  0  0  0  0  0  0  0  0
    3.1730    4.6922    0.8996 H   0  0  0  0  0  0  0  0  0  0  0  0
    1.0605    5.9401    1.1158 H   0  0  0  0  0  0  0  0  0  0  0  0
   -1.0891    4.8061    0.6312 H   0  0  0  0  0  0  0  0  0  0  0  0
   -0.5193   -1.2425   -2.3162 H   0  0  0  0  0  0  0  0  0  0  0  0
   -0.7321   -1.9822   -0.6852 H   0  0  0  0  0  0  0  0  0  0  0  0
   -2.2066   -3.1175   -2.3310 H   0  0  0  0  0  0  0  0  0  0  0  0
   -3.0109   -1.5702   -2.7277 H   0  0  0  0  0  0  0  0  0  0  0  0
   -2.8047   -2.8212   -0.0517 H   0  0  0  0  0  0  0  0  0  0  0  0
   -4.1851   -2.8821   -1.0084 H   0  0  0  0  0  0  0  0  0  0  0  0
   -3.5585   -1.0768    0.9051 H   0  0  0  0  0  0  0  0  0  0  0  0
   -4.8438   -0.9134   -0.2950 H   0  0  0  0  0  0  0  0  0  0  0  0
   -3.2541    1.0398   -0.1792 H   0  0  0  0  0  0  0  0  0  0  0  0
   -3.4302    0.4065   -1.7942 H   0  0  0  0  0  0  0  0  0  0  0  0
    2.5669    0.4556   -0.9266 H   0  0  0  0  0  0  0  0  0  0  0  0
    1.3326   -0.5973   -1.5221 H   0  0  0  0  0  0  0  0  0  0  0  0
    2.4974    0.5267    1.9769 H   0  0  0  0  0  0  0  0  0  0  0  0
    3.2103   -1.0345    3.6829 H   0  0  0  0  0  0  0  0  0  0  0  0
    3.1527   -3.4563    3.2678 H   0  0  0  0  0  0  0  0  0  0  0  0
    2.3561   -4.2822    1.0967 H   0  0  0  0  0  0  0  0  0  0  0  0
    1.6662   -2.7381   -0.6467 H   0  0  0  0  0  0  0  0  0  0  0  0
  1  2  1  0
  2  3  2  0
  3  4  1  0
  4  5  2  0
  5  6  1  0
  6  7  2  0
  7  8  1  0
  8  9  2  0
  9 10  1  0
 10 11  1  0
 11 12  1  0
 12 13  1  0
 13 14  1  0
 14 15  1  0
  1 16  1  0
 16 17  1  0
 17 18  2  0
 18 19  1  0
 19 20  2  0
 20 21  1  0
 21 22  2  0
  9  1  1  0
  7  2  1  0
 15 10  1  0
 22 17  1  0
  3 23  1  0
  4 24  1  0
  5 25  1  0
  6 26  1  0
 11 27  1  0
 11 28  1  0
 12 29  1  0
 12 30  1  0
 13 31  1  0
 13 32  1  0
 14 33  1  0
 14 34  1  0
 15 35  1  0
 15 36  1  0
 16 37  1  0
 16 38  1  0
 18 39  1  0
 19 40  1  0
 20 41  1  0
 21 42  1  0
 22 43  1  0
M  CHG  1  13   1
M  END
>  <conformer_id>  (5) 
1

>  <converged>  (5) 
1

>  <energy_abs>  (5) 
123.91632467707444

>  <cluster_no>  (5) 
5

>  <cluster_centroid>  (5) 
1

>  <rms_to_centroid>  (5) 
0.0

>  <energy_delta>  (5) 
11.253942065739636

$$$$
