DB08503
     RDKit          3D

 43 45  0  0  0  0  0  0  0  0999 V2000
    0.9601    0.4754   -0.3763 C   0  0  2  0  0  0  0  0  0  0  0  0
    2.4379    0.2328   -0.2797 C   0  0  0  0  0  0  0  0  0  0  0  0
    2.9612   -1.0696   -0.2624 C   0  0  0  0  0  0  0  0  0  0  0  0
    4.3303   -1.2662   -0.1443 C   0  0  0  0  0  0  0  0  0  0  0  0
    5.1912   -0.1856   -0.0191 C   0  0  0  0  0  0  0  0  0  0  0  0
    4.6758    1.1098   -0.0459 C   0  0  0  0  0  0  0  0  0  0  0  0
    3.3007    1.3162   -0.1679 C   0  0  0  0  0  0  0  0  0  0  0  0
    6.6706   -0.3602    0.1080 C   0  0  0  0  0  0  0  0  0  0  0  0
    0.2043    0.1413    0.8839 C   0  0  0  0  0  0  0  0  0  0  0  0
   -1.1102   -0.2202    0.3203 C   0  0  2  0  0  0  0  0  0  0  0  0
   -1.7561    1.0307   -0.0440 O   0  0  0  0  0  0  0  0  0  0  0  0
   -2.9898    0.8601   -0.7775 C   0  0  2  0  0  0  0  0  0  0  0  0
   -3.6172    2.2350   -0.7944 C   0  0  0  0  0  0  0  0  0  0  0  0
   -3.9027    2.6518    0.5674 O   0  0  0  0  0  0  0  0  0  0  0  0
   -3.9431   -0.1360   -0.1440 C   0  0  1  0  0  0  0  0  0  0  0  0
   -4.8855   -0.5758   -1.1659 O   0  0  0  0  0  0  0  0  0  0  0  0
   -3.2579   -1.3734    0.4285 C   0  0  2  0  0  0  0  0  0  0  0  0
   -4.2217   -2.0434    1.2897 O   0  0  0  0  0  0  0  0  0  0  0  0
   -2.0372   -0.9735    1.2219 C   0  0  1  0  0  0  0  0  0  0  0  0
   -1.3636   -2.1415    1.7679 O   0  0  0  0  0  0  0  0  0  0  0  0
   -0.7728   -1.0589   -0.8574 O   0  0  0  0  0  0  0  0  0  0  0  0
    0.3409   -0.2138   -1.5016 N   0  0  0  0  0  0  0  0  0  0  0  0
    0.7964    1.5074   -0.6380 H   0  0  0  0  0  0  0  0  0  0  0  0
    2.2725   -1.8995   -0.3445 H   0  0  0  0  0  0  0  0  0  0  0  0
    4.7213   -2.2679   -0.1301 H   0  0  0  0  0  0  0  0  0  0  0  0
    5.3391    1.9500    0.0455 H   0  0  0  0  0  0  0  0  0  0  0  0
    2.8947    2.3162   -0.1777 H   0  0  0  0  0  0  0  0  0  0  0  0
    7.1500   -0.0935   -0.8316 H   0  0  0  0  0  0  0  0  0  0  0  0
    6.9134   -1.4027    0.3854 H   0  0  0  0  0  0  0  0  0  0  0  0
    7.0409    0.2759    0.9013 H   0  0  0  0  0  0  0  0  0  0  0  0
    0.6453   -0.7051    1.4048 H   0  0  0  0  0  0  0  0  0  0  0  0
    0.1038    1.0256    1.5191 H   0  0  0  0  0  0  0  0  0  0  0  0
   -2.7442    0.5853   -1.8006 H   0  0  0  0  0  0  0  0  0  0  0  0
   -2.9035    2.9423   -1.1816 H   0  0  0  0  0  0  0  0  0  0  0  0
   -4.5374    2.2398   -1.3753 H   0  0  0  0  0  0  0  0  0  0  0  0
   -4.8215    2.9692    0.5836 H   0  0  0  0  0  0  0  0  0  0  0  0
   -4.5446    0.3214    0.6365 H   0  0  0  0  0  0  0  0  0  0  0  0
   -4.3951   -0.6656   -2.0027 H   0  0  0  0  0  0  0  0  0  0  0  0
   -2.9956   -2.0852   -0.3649 H   0  0  0  0  0  0  0  0  0  0  0  0
   -5.0495   -2.0456    0.7768 H   0  0  0  0  0  0  0  0  0  0  0  0
   -2.3269   -0.3257    2.0301 H   0  0  0  0  0  0  0  0  0  0  0  0
   -1.6969   -2.1995    2.6769 H   0  0  0  0  0  0  0  0  0  0  0  0
    0.9223   -0.8776   -2.1199 H   0  0  0  0  0  0  0  0  0  0  0  0
  1  2  1  0
  2  3  2  0
  3  4  1  0
  4  5  2  0
  5  6  1  0
  6  7  2  0
  5  8  1  0
  1  9  1  0
  9 10  1  0
 10 11  1  6
 11 12  1  0
 12 13  1  0
 13 14  1  0
 12 15  1  0
 15 16  1  0
 15 17  1  0
 17 18  1  0
 17 19  1  0
 19 20  1  0
 10 21  1  0
 21 22  1  0
 22  1  1  0
  7  2  1  0
 19 10  1  0
  1 23  1  6
  3 24  1  0
  4 25  1  0
  6 26  1  0
  7 27  1  0
  8 28  1  0
  8 29  1  0
  8 30  1  0
  9 31  1  0
  9 32  1  0
 12 33  1  6
 13 34  1  0
 13 35  1  0
 14 36  1  0
 15 37  1  1
 16 38  1  0
 17 39  1  6
 18 40  1  0
 19 41  1  1
 20 42  1  0
 22 43  1  0
M  END
>  <conformer_id>  (1) 
5

>  <converged>  (1) 
1

>  <energy_abs>  (1) 
173.33191690484307

>  <cluster_no>  (1) 
1

>  <cluster_centroid>  (1) 
5

>  <rms_to_centroid>  (1) 
0.0

>  <energy_delta>  (1) 
0

$$$$
DB08503
     RDKit          3D

 43 45  0  0  0  0  0  0  0  0999 V2000
    0.8452    0.2623   -0.7020 C   0  0  2  0  0  0  0  0  0  0  0  0
    2.2686    0.2878   -0.2524 C   0  0  0  0  0  0  0  0  0  0  0  0
    2.6200    0.3832    1.0888 C   0  0  0  0  0  0  0  0  0  0  0  0
    3.9586    0.3868    1.4720 C   0  0  0  0  0  0  0  0  0  0  0  0
    4.9635    0.3083    0.5076 C   0  0  0  0  0  0  0  0  0  0  0  0
    4.6089    0.1899   -0.8263 C   0  0  0  0  0  0  0  0  0  0  0  0
    3.2964    0.1921   -1.2099 C   0  0  0  0  0  0  0  0  0  0  0  0
    6.4191    0.3035    0.8385 C   0  0  0  0  0  0  0  0  0  0  0  0
   -0.1263   -0.2378    0.2909 C   0  0  0  0  0  0  0  0  0  0  0  0
   -1.2348   -0.6719   -0.5760 C   0  0  2  0  0  0  0  0  0  0  0  0
   -1.9140    0.5121   -1.0613 O   0  0  0  0  0  0  0  0  0  0  0  0
   -3.1385    0.8682   -0.3834 C   0  0  2  0  0  0  0  0  0  0  0  0
   -2.9604    2.1911    0.2604 C   0  0  0  0  0  0  0  0  0  0  0  0
   -2.5897    3.1132   -0.7760 O   0  0  0  0  0  0  0  0  0  0  0  0
   -3.7031   -0.1308    0.5988 C   0  0  1  0  0  0  0  0  0  0  0  0
   -5.1066    0.1331    0.6925 O   0  0  0  0  0  0  0  0  0  0  0  0
   -3.5139   -1.4785    0.0365 C   0  0  2  0  0  0  0  0  0  0  0  0
   -4.1364   -2.4486    0.9264 O   0  0  0  0  0  0  0  0  0  0  0  0
   -2.0440   -1.8076    0.0055 C   0  0  1  0  0  0  0  0  0  0  0  0
   -1.8223   -3.0392   -0.7255 O   0  0  0  0  0  0  0  0  0  0  0  0
   -0.6872   -1.2220   -1.7949 O   0  0  0  0  0  0  0  0  0  0  0  0
    0.8349   -0.7001   -1.8175 N   0  0  0  0  0  0  0  0  0  0  0  0
    0.5496    1.2334   -1.1160 H   0  0  0  0  0  0  0  0  0  0  0  0
    1.8405    0.4535    1.8415 H   0  0  0  0  0  0  0  0  0  0  0  0
    4.2479    0.4697    2.5058 H   0  0  0  0  0  0  0  0  0  0  0  0
    5.3736    0.1213   -1.5722 H   0  0  0  0  0  0  0  0  0  0  0  0
    3.0507    0.1049   -2.2565 H   0  0  0  0  0  0  0  0  0  0  0  0
    6.9481    0.7874    0.0303 H   0  0  0  0  0  0  0  0  0  0  0  0
    6.7625   -0.7261    0.9094 H   0  0  0  0  0  0  0  0  0  0  0  0
    6.6152    0.8623    1.7598 H   0  0  0  0  0  0  0  0  0  0  0  0
   -0.4167    0.5607    1.0193 H   0  0  0  0  0  0  0  0  0  0  0  0
    0.2673   -1.1173    0.8241 H   0  0  0  0  0  0  0  0  0  0  0  0
   -3.8276    0.9700   -1.2015 H   0  0  0  0  0  0  0  0  0  0  0  0
   -2.2079    2.1803    1.0763 H   0  0  0  0  0  0  0  0  0  0  0  0
   -3.9282    2.4723    0.6172 H   0  0  0  0  0  0  0  0  0  0  0  0
   -1.8677    3.6829   -0.4554 H   0  0  0  0  0  0  0  0  0  0  0  0
   -3.2564   -0.0351    1.6129 H   0  0  0  0  0  0  0  0  0  0  0  0
   -5.3293    0.8231    0.0377 H   0  0  0  0  0  0  0  0  0  0  0  0
   -4.0152   -1.5506   -0.9442 H   0  0  0  0  0  0  0  0  0  0  0  0
   -5.0868   -2.2466    0.8810 H   0  0  0  0  0  0  0  0  0  0  0  0
   -1.6955   -1.9627    0.9942 H   0  0  0  0  0  0  0  0  0  0  0  0
   -2.1473   -2.8811   -1.6341 H   0  0  0  0  0  0  0  0  0  0  0  0
    1.2850   -1.5970   -1.5223 H   0  0  0  0  0  0  0  0  0  0  0  0
  1  2  1  0
  2  3  2  0
  3  4  1  0
  4  5  2  0
  5  6  1  0
  6  7  2  0
  5  8  1  0
  1  9  1  0
  9 10  1  0
 10 11  1  6
 11 12  1  0
 12 13  1  0
 13 14  1  0
 12 15  1  0
 15 16  1  0
 15 17  1  0
 17 18  1  0
 17 19  1  0
 19 20  1  0
 10 21  1  0
 21 22  1  0
 22  1  1  0
  7  2  1  0
 19 10  1  0
  1 23  1  6
  3 24  1  0
  4 25  1  0
  6 26  1  0
  7 27  1  0
  8 28  1  0
  8 29  1  0
  8 30  1  0
  9 31  1  0
  9 32  1  0
 12 33  1  6
 13 34  1  0
 13 35  1  0
 14 36  1  0
 15 37  1  1
 16 38  1  0
 17 39  1  6
 18 40  1  0
 19 41  1  1
 20 42  1  0
 22 43  1  0
M  END
>  <conformer_id>  (2) 
4

>  <converged>  (2) 
1

>  <energy_abs>  (2) 
203.8254418649756

>  <cluster_no>  (2) 
2

>  <cluster_centroid>  (2) 
4

>  <rms_to_centroid>  (2) 
0.0

>  <energy_delta>  (2) 
30.493524960132532

$$$$
DB08503
     RDKit          3D

 43 45  0  0  0  0  0  0  0  0999 V2000
    1.1786    0.9171   -1.0441 C   0  0  2  0  0  0  0  0  0  0  0  0
    2.4579    0.4464   -0.3854 C   0  0  0  0  0  0  0  0  0  0  0  0
    2.7182    0.5366    0.9827 C   0  0  0  0  0  0  0  0  0  0  0  0
    3.8979    0.0036    1.5338 C   0  0  0  0  0  0  0  0  0  0  0  0
    4.8644   -0.5934    0.7228 C   0  0  0  0  0  0  0  0  0  0  0  0
    4.6621   -0.6264   -0.6486 C   0  0  0  0  0  0  0  0  0  0  0  0
    3.4808   -0.1109   -1.2138 C   0  0  0  0  0  0  0  0  0  0  0  0
    6.1359   -1.1096    1.3247 C   0  0  0  0  0  0  0  0  0  0  0  0
   -0.0650    0.9627   -0.1367 C   0  0  0  0  0  0  0  0  0  0  0  0
   -1.1852    0.3748   -0.9758 C   0  0  2  0  0  0  0  0  0  0  0  0
   -2.2840    1.2803   -0.9964 O   0  0  0  0  0  0  0  0  0  0  0  0
   -3.5286    0.8347   -0.4304 C   0  0  2  0  0  0  0  0  0  0  0  0
   -4.5460    2.0063   -0.4706 C   0  0  0  0  0  0  0  0  0  0  0  0
   -5.8875    1.6193   -0.2833 O   0  0  0  0  0  0  0  0  0  0  0  0
   -3.2793    0.1518    0.9309 C   0  0  1  0  0  0  0  0  0  0  0  0
   -4.5169   -0.1400    1.6143 O   0  0  0  0  0  0  0  0  0  0  0  0
   -2.4741   -1.1708    0.6855 C   0  0  2  0  0  0  0  0  0  0  0  0
   -1.8867   -1.4801    1.9389 O   0  0  0  0  0  0  0  0  0  0  0  0
   -1.5301   -1.0953   -0.5610 C   0  0  1  0  0  0  0  0  0  0  0  0
   -2.2226   -1.7786   -1.6236 O   0  0  0  0  0  0  0  0  0  0  0  0
   -0.6384    0.3114   -2.2895 O   0  0  0  0  0  0  0  0  0  0  0  0
    0.7673    0.1295   -2.2101 N   0  0  0  0  0  0  0  0  0  0  0  0
    1.3721    1.9492   -1.4380 H   0  0  0  0  0  0  0  0  0  0  0  0
    2.0225    1.0304    1.6573 H   0  0  0  0  0  0  0  0  0  0  0  0
    4.0403    0.0755    2.6081 H   0  0  0  0  0  0  0  0  0  0  0  0
    5.4086   -1.0564   -1.3334 H   0  0  0  0  0  0  0  0  0  0  0  0
    3.3820   -0.1564   -2.3042 H   0  0  0  0  0  0  0  0  0  0  0  0
    6.6574   -1.8010    0.6358 H   0  0  0  0  0  0  0  0  0  0  0  0
    6.7914   -0.2541    1.5312 H   0  0  0  0  0  0  0  0  0  0  0  0
    5.9164   -1.6506    2.2551 H   0  0  0  0  0  0  0  0  0  0  0  0
   -0.0039    0.3818    0.7856 H   0  0  0  0  0  0  0  0  0  0  0  0
   -0.2446    1.9791    0.2035 H   0  0  0  0  0  0  0  0  0  0  0  0
   -3.9431    0.0987   -1.1118 H   0  0  0  0  0  0  0  0  0  0  0  0
   -4.2688    2.8356    0.2128 H   0  0  0  0  0  0  0  0  0  0  0  0
   -4.5689    2.4419   -1.4856 H   0  0  0  0  0  0  0  0  0  0  0  0
   -5.8577    0.6459    0.0365 H   0  0  0  0  0  0  0  0  0  0  0  0
   -2.6834    0.7883    1.6073 H   0  0  0  0  0  0  0  0  0  0  0  0
   -4.2840   -0.8878    2.2598 H   0  0  0  0  0  0  0  0  0  0  0  0
   -3.1967   -1.9769    0.4936 H   0  0  0  0  0  0  0  0  0  0  0  0
   -1.0176   -1.9039    1.8106 H   0  0  0  0  0  0  0  0  0  0  0  0
   -0.6193   -1.7090   -0.3916 H   0  0  0  0  0  0  0  0  0  0  0  0
   -1.8850   -1.3745   -2.4698 H   0  0  0  0  0  0  0  0  0  0  0  0
    0.8637   -0.9253   -2.0272 H   0  0  0  0  0  0  0  0  0  0  0  0
  1  2  1  0
  2  3  2  0
  3  4  1  0
  4  5  2  0
  5  6  1  0
  6  7  2  0
  5  8  1  0
  1  9  1  0
  9 10  1  0
 10 11  1  6
 11 12  1  0
 12 13  1  0
 13 14  1  0
 12 15  1  0
 15 16  1  0
 15 17  1  0
 17 18  1  0
 17 19  1  0
 19 20  1  0
 10 21  1  0
 21 22  1  0
 22  1  1  0
  7  2  1  0
 19 10  1  0
  1 23  1  6
  3 24  1  0
  4 25  1  0
  6 26  1  0
  7 27  1  0
  8 28  1  0
  8 29  1  0
  8 30  1  0
  9 31  1  0
  9 32  1  0
 12 33  1  6
 13 34  1  0
 13 35  1  0
 14 36  1  0
 15 37  1  1
 16 38  1  0
 17 39  1  6
 18 40  1  0
 19 41  1  1
 20 42  1  0
 22 43  1  0
M  END
>  <conformer_id>  (3) 
3

>  <converged>  (3) 
1

>  <energy_abs>  (3) 
182.59239871229553

>  <cluster_no>  (3) 
3

>  <cluster_centroid>  (3) 
3

>  <rms_to_centroid>  (3) 
0.0

>  <energy_delta>  (3) 
9.2604818074524644

$$$$
DB08503
     RDKit          3D

 43 45  0  0  0  0  0  0  0  0999 V2000
    0.9064    0.4485   -0.5109 C   0  0  2  0  0  0  0  0  0  0  0  0
    2.3666    0.2996   -0.2105 C   0  0  0  0  0  0  0  0  0  0  0  0
    3.3346    0.6040   -1.1643 C   0  0  0  0  0  0  0  0  0  0  0  0
    4.6993    0.4874   -0.8737 C   0  0  0  0  0  0  0  0  0  0  0  0
    5.1079    0.0591    0.3778 C   0  0  0  0  0  0  0  0  0  0  0  0
    4.1932   -0.2728    1.3517 C   0  0  0  0  0  0  0  0  0  0  0  0
    2.8189   -0.1492    1.0474 C   0  0  0  0  0  0  0  0  0  0  0  0
    6.5890   -0.0873    0.6860 C   0  0  0  0  0  0  0  0  0  0  0  0
    0.0712   -0.3728    0.4324 C   0  0  0  0  0  0  0  0  0  0  0  0
   -1.1917   -0.4249   -0.3593 C   0  0  2  0  0  0  0  0  0  0  0  0
   -1.8287    0.8414   -0.0664 O   0  0  0  0  0  0  0  0  0  0  0  0
   -3.2099    0.9333   -0.4091 C   0  0  2  0  0  0  0  0  0  0  0  0
   -3.6075    2.3014    0.1062 C   0  0  0  0  0  0  0  0  0  0  0  0
   -2.8686    3.2955   -0.6785 O   0  0  0  0  0  0  0  0  0  0  0  0
   -3.9627   -0.1653    0.3202 C   0  0  1  0  0  0  0  0  0  0  0  0
   -5.3968    0.0057    0.2016 O   0  0  0  0  0  0  0  0  0  0  0  0
   -3.4936   -1.4904   -0.2304 C   0  0  2  0  0  0  0  0  0  0  0  0
   -4.2233   -2.5963    0.4101 O   0  0  0  0  0  0  0  0  0  0  0  0
   -2.0105   -1.6343    0.1096 C   0  0  1  0  0  0  0  0  0  0  0  0
   -1.4513   -2.8355   -0.5075 O   0  0  0  0  0  0  0  0  0  0  0  0
   -0.8170   -0.5284   -1.7772 O   0  0  0  0  0  0  0  0  0  0  0  0
    0.6679   -0.2074   -1.7658 N   0  0  0  0  0  0  0  0  0  0  0  0
    0.5946    1.4881   -0.3996 H   0  0  0  0  0  0  0  0  0  0  0  0
    3.0174    0.9618   -2.1210 H   0  0  0  0  0  0  0  0  0  0  0  0
    5.4171    0.7464   -1.6020 H   0  0  0  0  0  0  0  0  0  0  0  0
    4.4996   -0.6032    2.3085 H   0  0  0  0  0  0  0  0  0  0  0  0
    2.1072   -0.3885    1.8450 H   0  0  0  0  0  0  0  0  0  0  0  0
    7.0469   -0.6829   -0.1010 H   0  0  0  0  0  0  0  0  0  0  0  0
    7.0543    0.8937    0.7625 H   0  0  0  0  0  0  0  0  0  0  0  0
    6.7258   -0.6123    1.6303 H   0  0  0  0  0  0  0  0  0  0  0  0
    0.4280   -1.4114    0.5934 H   0  0  0  0  0  0  0  0  0  0  0  0
   -0.0873    0.1163    1.4304 H   0  0  0  0  0  0  0  0  0  0  0  0
   -3.3607    0.8817   -1.4909 H   0  0  0  0  0  0  0  0  0  0  0  0
   -3.2972    2.3954    1.1529 H   0  0  0  0  0  0  0  0  0  0  0  0
   -4.6515    2.4627   -0.0123 H   0  0  0  0  0  0  0  0  0  0  0  0
   -2.5156    3.9423   -0.0253 H   0  0  0  0  0  0  0  0  0  0  0  0
   -3.7035   -0.1415    1.3666 H   0  0  0  0  0  0  0  0  0  0  0  0
   -5.5975    0.5712   -0.5656 H   0  0  0  0  0  0  0  0  0  0  0  0
   -3.6906   -1.5738   -1.3102 H   0  0  0  0  0  0  0  0  0  0  0  0
   -3.8830   -2.6637    1.3241 H   0  0  0  0  0  0  0  0  0  0  0  0
   -1.9408   -1.7451    1.2059 H   0  0  0  0  0  0  0  0  0  0  0  0
   -1.5794   -3.5857    0.1460 H   0  0  0  0  0  0  0  0  0  0  0  0
    0.7228    0.4370   -2.6270 H   0  0  0  0  0  0  0  0  0  0  0  0
  1  2  1  0
  2  3  2  0
  3  4  1  0
  4  5  2  0
  5  6  1  0
  6  7  2  0
  5  8  1  0
  1  9  1  0
  9 10  1  0
 10 11  1  6
 11 12  1  0
 12 13  1  0
 13 14  1  0
 12 15  1  0
 15 16  1  0
 15 17  1  0
 17 18  1  0
 17 19  1  0
 19 20  1  0
 10 21  1  0
 21 22  1  0
 22  1  1  0
  7  2  1  0
 19 10  1  0
  1 23  1  6
  3 24  1  0
  4 25  1  0
  6 26  1  0
  7 27  1  0
  8 28  1  0
  8 29  1  0
  8 30  1  0
  9 31  1  0
  9 32  1  0
 12 33  1  6
 13 34  1  0
 13 35  1  0
 14 36  1  0
 15 37  1  1
 16 38  1  0
 17 39  1  6
 18 40  1  0
 19 41  1  1
 20 42  1  0
 22 43  1  0
M  END
>  <conformer_id>  (4) 
2

>  <converged>  (4) 
1

>  <energy_abs>  (4) 
188.77405406436378

>  <cluster_no>  (4) 
4

>  <cluster_centroid>  (4) 
2

>  <rms_to_centroid>  (4) 
0.0

>  <energy_delta>  (4) 
15.442137159520712

$$$$
DB08503
     RDKit          3D

 43 45  0  0  0  0  0  0  0  0999 V2000
    0.9766    0.6535   -0.8031 C   0  0  2  0  0  0  0  0  0  0  0  0
    2.3643    0.3944   -0.3440 C   0  0  0  0  0  0  0  0  0  0  0  0
    2.6961    0.3379    1.0005 C   0  0  0  0  0  0  0  0  0  0  0  0
    4.0103    0.0930    1.3886 C   0  0  0  0  0  0  0  0  0  0  0  0
    5.0082   -0.0966    0.4377 C   0  0  0  0  0  0  0  0  0  0  0  0
    4.6781   -0.0312   -0.9115 C   0  0  0  0  0  0  0  0  0  0  0  0
    3.3853    0.2186   -1.2952 C   0  0  0  0  0  0  0  0  0  0  0  0
    6.4150   -0.3425    0.8948 C   0  0  0  0  0  0  0  0  0  0  0  0
   -0.1069    0.3799    0.1879 C   0  0  0  0  0  0  0  0  0  0  0  0
   -1.1961   -0.2298   -0.6340 C   0  0  2  0  0  0  0  0  0  0  0  0
   -2.0059    0.8598   -1.1663 O   0  0  0  0  0  0  0  0  0  0  0  0
   -3.3926    0.9430   -0.7107 C   0  0  2  0  0  0  0  0  0  0  0  0
   -3.6871    2.3846   -0.3657 C   0  0  0  0  0  0  0  0  0  0  0  0
   -2.8065    2.9184    0.6679 O   0  0  0  0  0  0  0  0  0  0  0  0
   -3.7513    0.0249    0.4399 C   0  0  1  0  0  0  0  0  0  0  0  0
   -5.1818    0.1538    0.5425 O   0  0  0  0  0  0  0  0  0  0  0  0
   -3.3293   -1.3313    0.0402 C   0  0  2  0  0  0  0  0  0  0  0  0
   -3.7913   -2.2851    1.0488 O   0  0  0  0  0  0  0  0  0  0  0  0
   -1.8506   -1.3741    0.1309 C   0  0  1  0  0  0  0  0  0  0  0  0
   -1.3425   -2.6400   -0.3838 O   0  0  0  0  0  0  0  0  0  0  0  0
   -0.6394   -0.8480   -1.7997 O   0  0  0  0  0  0  0  0  0  0  0  0
    0.7535   -0.1413   -1.9894 N   0  0  0  0  0  0  0  0  0  0  0  0
    0.9003    1.6684   -1.1656 H   0  0  0  0  0  0  0  0  0  0  0  0
    1.9291    0.4794    1.7567 H   0  0  0  0  0  0  0  0  0  0  0  0
    4.2791    0.0431    2.4196 H   0  0  0  0  0  0  0  0  0  0  0  0
    5.4201   -0.1688   -1.6641 H   0  0  0  0  0  0  0  0  0  0  0  0
    3.1341    0.2611   -2.3514 H   0  0  0  0  0  0  0  0  0  0  0  0
    6.4239   -1.1297    1.6436 H   0  0  0  0  0  0  0  0  0  0  0  0
    6.8206    0.5537    1.3476 H   0  0  0  0  0  0  0  0  0  0  0  0
    7.0395   -0.6175    0.0453 H   0  0  0  0  0  0  0  0  0  0  0  0
    0.2086   -0.3562    0.9595 H   0  0  0  0  0  0  0  0  0  0  0  0
   -0.3983    1.3184    0.6783 H   0  0  0  0  0  0  0  0  0  0  0  0
   -3.9732    0.6875   -1.5640 H   0  0  0  0  0  0  0  0  0  0  0  0
   -4.6879    2.4462    0.0114 H   0  0  0  0  0  0  0  0  0  0  0  0
   -3.6066    3.0048   -1.2427 H   0  0  0  0  0  0  0  0  0  0  0  0
   -2.5409    2.2053    1.2759 H   0  0  0  0  0  0  0  0  0  0  0  0
   -3.2841    0.3042    1.3922 H   0  0  0  0  0  0  0  0  0  0  0  0
   -5.4712   -0.5177    1.1676 H   0  0  0  0  0  0  0  0  0  0  0  0
   -3.7607   -1.6051   -0.9399 H   0  0  0  0  0  0  0  0  0  0  0  0
   -4.0285   -3.0972    0.5647 H   0  0  0  0  0  0  0  0  0  0  0  0
   -1.5609   -1.3057    1.1532 H   0  0  0  0  0  0  0  0  0  0  0  0
   -1.4564   -3.2661    0.3343 H   0  0  0  0  0  0  0  0  0  0  0  0
    1.4075   -0.9501   -2.1986 H   0  0  0  0  0  0  0  0  0  0  0  0
  1  2  1  0
  2  3  2  0
  3  4  1  0
  4  5  2  0
  5  6  1  0
  6  7  2  0
  5  8  1  0
  1  9  1  0
  9 10  1  0
 10 11  1  6
 11 12  1  0
 12 13  1  0
 13 14  1  0
 12 15  1  0
 15 16  1  0
 15 17  1  0
 17 18  1  0
 17 19  1  0
 19 20  1  0
 10 21  1  0
 21 22  1  0
 22  1  1  0
  7  2  1  0
 19 10  1  0
  1 23  1  6
  3 24  1  0
  4 25  1  0
  6 26  1  0
  7 27  1  0
  8 28  1  0
  8 29  1  0
  8 30  1  0
  9 31  1  0
  9 32  1  0
 12 33  1  6
 13 34  1  0
 13 35  1  0
 14 36  1  0
 15 37  1  1
 16 38  1  0
 17 39  1  6
 18 40  1  0
 19 41  1  1
 20 42  1  0
 22 43  1  0
M  END
>  <conformer_id>  (5) 
1

>  <converged>  (5) 
1

>  <energy_abs>  (5) 
205.13029900904021

>  <cluster_no>  (5) 
5

>  <cluster_centroid>  (5) 
1

>  <rms_to_centroid>  (5) 
0.0

>  <energy_delta>  (5) 
31.798382104197145

$$$$
