
 OpenBabel12271914463D

 22 23  0  0  1  0  0  0  0  0999 V2000
  -13.2300  -26.0080   -9.6370 C   0  0  2  0  0  0  0  0  0  0  0  0
  -14.5350  -25.3940  -10.1100 C   0  0  2  0  0  0  0  0  0  0  0  0
  -15.4510  -26.0110   -9.1920 O   0  0  0  0  0  0  0  0  0  0  0  0
  -14.8660  -25.6080   -7.9630 C   0  0  2  0  0  0  0  0  0  0  0  0
  -13.3600  -25.8130   -8.1290 C   0  0  0  0  0  0  0  0  0  0  0  0
  -15.3850  -26.3420   -6.7790 C   0  0  0  0  0  0  0  0  0  0  0  0
  -16.6880  -26.0300   -6.3680 C   0  0  0  0  0  0  0  0  0  0  0  0
  -17.1970  -26.5990   -5.2170 C   0  0  0  0  0  0  0  0  0  0  0  0
  -18.5800  -26.2330   -4.8070 C   0  0  0  0  0  0  0  0  0  0  0  0
  -16.3970  -27.4860   -4.5200 C   0  0  0  0  0  0  0  0  0  0  0  0
  -15.1480  -27.8050   -4.9100 N   0  0  0  0  0  0  0  0  0  0  0  0
  -14.6510  -27.2340   -6.0260 C   0  0  0  0  0  0  0  0  0  0  0  0
  -16.8660  -28.0630   -3.3690 O   0  0  0  0  0  0  0  0  0  0  0  0
  -17.4470  -28.8280   -3.5760 H   0  0  0  0  0  0  0  0  0  0  0  0
  -12.0510  -25.3960  -10.0980 O   0  0  0  0  0  0  0  0  0  0  0  0
  -11.6800  -25.9350  -10.8240 H   0  0  0  0  0  0  0  0  0  0  0  0
  -14.9030  -25.5860  -11.5510 C   0  0  0  0  0  0  0  0  0  0  0  0
  -13.9460  -26.4690  -12.1010 O   0  0  0  0  0  0  0  0  0  0  0  0
  -14.1220  -26.8740  -13.6910 P   0  0  0  0  0  0  0  0  0  0  0  0
  -13.3760  -25.7540  -14.4380 O   0  0  0  0  0  0  0  0  0  0  0  0
  -15.6400  -26.8390  -14.0110 O   0  0  0  0  0  0  0  0  0  0  0  0
  -13.4610  -28.2630  -13.9090 O   0  0  0  0  0  0  0  0  0  0  0  0
  1 15  1  6  0  0  0
  1  5  1  0  0  0  0
  2 17  1  6  0  0  0
  2  1  1  0  0  0  0
  2  3  1  0  0  0  0
  3  4  1  0  0  0  0
  4  6  1  1  0  0  0
  5  4  1  0  0  0  0
  6  7  1  0  0  0  0
  6 12  2  0  0  0  0
  7  8  2  0  0  0  0
  8  9  1  0  0  0  0
  8 10  1  0  0  0  0
 10 13  1  0  0  0  0
 11 10  2  0  0  0  0
 12 11  1  0  0  0  0
 14 13  1  0  0  0  0
 16 15  1  0  0  0  0
 18 17  1  0  0  0  0
 19 18  1  0  0  0  0
 20 19  2  0  0  0  0
 21 19  1  0  0  0  0
 22 19  1  0  0  0  0
M  END
>  <minimizedAffinity>
-7.94142914

$$$$

 OpenBabel12271914463D

 22 23  0  0  1  0  0  0  0  0999 V2000
  -19.1510  -25.9030   -5.5500 C   0  0  2  0  0  0  0  0  0  0  0  0
  -19.7410  -26.1020   -6.9340 C   0  0  2  0  0  0  0  0  0  0  0  0
  -18.6130  -25.7370   -7.7430 O   0  0  0  0  0  0  0  0  0  0  0  0
  -17.6480  -26.6440   -7.2320 C   0  0  2  0  0  0  0  0  0  0  0  0
  -17.8110  -26.6160   -5.7130 C   0  0  0  0  0  0  0  0  0  0  0  0
  -16.2510  -26.3270   -7.6320 C   0  0  0  0  0  0  0  0  0  0  0  0
  -16.0620  -25.8610   -8.9400 C   0  0  0  0  0  0  0  0  0  0  0  0
  -14.7820  -25.6440   -9.4110 C   0  0  0  0  0  0  0  0  0  0  0  0
  -14.6230  -25.1600  -10.8090 C   0  0  0  0  0  0  0  0  0  0  0  0
  -13.7240  -25.8750   -8.5510 C   0  0  0  0  0  0  0  0  0  0  0  0
  -13.8910  -26.3100   -7.2870 N   0  0  0  0  0  0  0  0  0  0  0  0
  -15.1420  -26.5360   -6.8390 C   0  0  0  0  0  0  0  0  0  0  0  0
  -12.4400  -25.6780   -8.9870 O   0  0  0  0  0  0  0  0  0  0  0  0
  -12.2000  -24.7260   -8.9440 H   0  0  0  0  0  0  0  0  0  0  0  0
  -19.8670  -26.4710   -4.4800 O   0  0  0  0  0  0  0  0  0  0  0  0
  -20.3680  -25.7650   -4.0280 H   0  0  0  0  0  0  0  0  0  0  0  0
  -20.9910  -25.3420   -7.2640 C   0  0  0  0  0  0  0  0  0  0  0  0
  -22.0260  -25.9040   -6.4820 O   0  0  0  0  0  0  0  0  0  0  0  0
  -23.5770  -25.6190   -6.9700 P   0  0  0  0  0  0  0  0  0  0  0  0
  -23.4130  -24.6880   -8.1840 O   0  0  0  0  0  0  0  0  0  0  0  0
  -24.3000  -24.8920   -5.8060 O   0  0  0  0  0  0  0  0  0  0  0  0
  -24.2160  -26.9810   -7.3600 O   0  0  0  0  0  0  0  0  0  0  0  0
  1 15  1  1  0  0  0
  2 17  1  6  0  0  0
  2  1  1  0  0  0  0
  3  4  1  0  0  0  0
  3  2  1  0  0  0  0
  4  6  1  1  0  0  0
  4  5  1  0  0  0  0
  5  1  1  0  0  0  0
  6 12  2  0  0  0  0
  7  6  1  0  0  0  0
  8  7  2  0  0  0  0
  8 10  1  0  0  0  0
  9  8  1  0  0  0  0
 10 11  2  0  0  0  0
 11 12  1  0  0  0  0
 13 14  1  0  0  0  0
 13 10  1  0  0  0  0
 15 16  1  0  0  0  0
 17 18  1  0  0  0  0
 19 18  1  0  0  0  0
 19 21  1  0  0  0  0
 20 19  2  0  0  0  0
 22 19  1  0  0  0  0
M  END
>  <minimizedAffinity>
-7.80024481

$$$$

 OpenBabel12271914463D

 22 23  0  0  1  0  0  0  0  0999 V2000
  -13.4710  -26.0080   -9.7030 C   0  0  2  0  0  0  0  0  0  0  0  0
  -14.6880  -25.3000  -10.2690 C   0  0  2  0  0  0  0  0  0  0  0  0
  -15.6870  -25.7260   -9.3290 O   0  0  0  0  0  0  0  0  0  0  0  0
  -15.0870  -25.2790   -8.1230 C   0  0  2  0  0  0  0  0  0  0  0  0
  -13.6110  -25.6620   -8.2220 C   0  0  0  0  0  0  0  0  0  0  0  0
  -15.7110  -25.8400   -6.8950 C   0  0  0  0  0  0  0  0  0  0  0  0
  -14.9420  -26.7540   -6.1610 C   0  0  0  0  0  0  0  0  0  0  0  0
  -15.4960  -27.3910   -5.0680 C   0  0  0  0  0  0  0  0  0  0  0  0
  -14.6510  -28.3620   -4.3210 C   0  0  0  0  0  0  0  0  0  0  0  0
  -16.7980  -27.0770   -4.7220 C   0  0  0  0  0  0  0  0  0  0  0  0
  -17.5440  -26.1920   -5.4100 N   0  0  0  0  0  0  0  0  0  0  0  0
  -17.0030  -25.5860   -6.4870 C   0  0  0  0  0  0  0  0  0  0  0  0
  -17.3820  -27.6960   -3.6480 O   0  0  0  0  0  0  0  0  0  0  0  0
  -17.1090  -27.2650   -2.8080 H   0  0  0  0  0  0  0  0  0  0  0  0
  -12.2210  -25.5730  -10.1790 O   0  0  0  0  0  0  0  0  0  0  0  0
  -11.8980  -26.2130  -10.8420 H   0  0  0  0  0  0  0  0  0  0  0  0
  -15.0450  -25.5810  -11.6980 C   0  0  0  0  0  0  0  0  0  0  0  0
  -13.8280  -25.6550  -12.4130 O   0  0  0  0  0  0  0  0  0  0  0  0
  -13.9040  -26.1900  -13.9720 P   0  0  0  0  0  0  0  0  0  0  0  0
  -12.8600  -25.3290  -14.7060 O   0  0  0  0  0  0  0  0  0  0  0  0
  -15.3340  -25.8910  -14.4940 O   0  0  0  0  0  0  0  0  0  0  0  0
  -13.5290  -27.6980  -13.9830 O   0  0  0  0  0  0  0  0  0  0  0  0
  1 15  1  6  0  0  0
  1  5  1  0  0  0  0
  2 17  1  6  0  0  0
  2  1  1  0  0  0  0
  2  3  1  0  0  0  0
  3  4  1  0  0  0  0
  4  6  1  1  0  0  0
  5  4  1  0  0  0  0
  6 12  2  0  0  0  0
  6  7  1  0  0  0  0
  7  8  2  0  0  0  0
  8 10  1  0  0  0  0
  8  9  1  0  0  0  0
 10 13  1  0  0  0  0
 11 10  2  0  0  0  0
 12 11  1  0  0  0  0
 13 14  1  0  0  0  0
 16 15  1  0  0  0  0
 18 17  1  0  0  0  0
 19 18  1  0  0  0  0
 20 19  2  0  0  0  0
 21 19  1  0  0  0  0
 22 19  1  0  0  0  0
M  END
>  <minimizedAffinity>
-7.77557611

$$$$

 OpenBabel12271914463D

 22 23  0  0  1  0  0  0  0  0999 V2000
  -13.2240  -26.0730   -9.5330 C   0  0  2  0  0  0  0  0  0  0  0  0
  -14.5270  -25.5000  -10.0610 C   0  0  2  0  0  0  0  0  0  0  0  0
  -15.4570  -26.1090   -9.1510 O   0  0  0  0  0  0  0  0  0  0  0  0
  -14.9160  -25.6580   -7.9190 C   0  0  2  0  0  0  0  0  0  0  0  0
  -13.4020  -25.8360   -8.0360 C   0  0  0  0  0  0  0  0  0  0  0  0
  -15.4550  -26.3680   -6.7280 C   0  0  0  0  0  0  0  0  0  0  0  0
  -16.7500  -26.0210   -6.3230 C   0  0  0  0  0  0  0  0  0  0  0  0
  -17.2750  -26.5660   -5.1670 C   0  0  0  0  0  0  0  0  0  0  0  0
  -18.6500  -26.1650   -4.7640 C   0  0  0  0  0  0  0  0  0  0  0  0
  -16.4970  -27.4650   -4.4600 C   0  0  0  0  0  0  0  0  0  0  0  0
  -15.2550  -27.8170   -4.8440 N   0  0  0  0  0  0  0  0  0  0  0  0
  -14.7420  -27.2690   -5.9640 C   0  0  0  0  0  0  0  0  0  0  0  0
  -16.9810  -28.0190   -3.3040 O   0  0  0  0  0  0  0  0  0  0  0  0
  -17.5790  -28.7730   -3.5050 H   0  0  0  0  0  0  0  0  0  0  0  0
  -12.0450  -25.4490   -9.9780 O   0  0  0  0  0  0  0  0  0  0  0  0
  -11.6430  -26.0010  -10.6760 H   0  0  0  0  0  0  0  0  0  0  0  0
  -14.8490  -25.7430  -11.5050 C   0  0  0  0  0  0  0  0  0  0  0  0
  -16.0800  -25.0960  -11.7610 O   0  0  0  0  0  0  0  0  0  0  0  0
  -17.3350  -26.0410  -12.2660 P   0  0  0  0  0  0  0  0  0  0  0  0
  -18.4830  -25.6650  -11.3120 O   0  0  0  0  0  0  0  0  0  0  0  0
  -16.9090  -27.5190  -12.0650 O   0  0  0  0  0  0  0  0  0  0  0  0
  -17.6550  -25.6690  -13.7400 O   0  0  0  0  0  0  0  0  0  0  0  0
  1 15  1  6  0  0  0
  1  5  1  0  0  0  0
  2 17  1  6  0  0  0
  2  1  1  0  0  0  0
  2  3  1  0  0  0  0
  3  4  1  0  0  0  0
  4  6  1  1  0  0  0
  5  4  1  0  0  0  0
  6  7  1  0  0  0  0
  6 12  2  0  0  0  0
  7  8  2  0  0  0  0
  8  9  1  0  0  0  0
  8 10  1  0  0  0  0
 10 13  1  0  0  0  0
 11 10  2  0  0  0  0
 12 11  1  0  0  0  0
 14 13  1  0  0  0  0
 16 15  1  0  0  0  0
 18 17  1  0  0  0  0
 19 21  1  0  0  0  0
 19 18  1  0  0  0  0
 19 20  1  0  0  0  0
 22 19  2  0  0  0  0
M  END
>  <minimizedAffinity>
-7.72417831

$$$$

 OpenBabel12271914463D

 22 23  0  0  1  0  0  0  0  0999 V2000
  -13.1720  -26.0830   -9.4530 C   0  0  2  0  0  0  0  0  0  0  0  0
  -14.4410  -25.8450  -10.2510 C   0  0  2  0  0  0  0  0  0  0  0  0
  -15.4190  -26.3430   -9.3240 O   0  0  0  0  0  0  0  0  0  0  0  0
  -15.1120  -25.5370   -8.1960 C   0  0  2  0  0  0  0  0  0  0  0  0
  -13.5870  -25.5220   -8.0950 C   0  0  0  0  0  0  0  0  0  0  0  0
  -15.7330  -26.0090   -6.9300 C   0  0  0  0  0  0  0  0  0  0  0  0
  -14.9760  -26.8920   -6.1490 C   0  0  0  0  0  0  0  0  0  0  0  0
  -15.5300  -27.4490   -5.0130 C   0  0  0  0  0  0  0  0  0  0  0  0
  -14.6980  -28.3910   -4.2170 C   0  0  0  0  0  0  0  0  0  0  0  0
  -16.8220  -27.0880   -4.6750 C   0  0  0  0  0  0  0  0  0  0  0  0
  -17.5570  -26.2310   -5.4090 N   0  0  0  0  0  0  0  0  0  0  0  0
  -17.0160  -25.7030   -6.5260 C   0  0  0  0  0  0  0  0  0  0  0  0
  -17.4070  -27.6280   -3.5590 O   0  0  0  0  0  0  0  0  0  0  0  0
  -17.1160  -27.1510   -2.7500 H   0  0  0  0  0  0  0  0  0  0  0  0
  -12.0170  -25.4250   -9.9100 O   0  0  0  0  0  0  0  0  0  0  0  0
  -11.4610  -26.0650  -10.3940 H   0  0  0  0  0  0  0  0  0  0  0  0
  -14.5260  -26.4700  -11.6110 C   0  0  0  0  0  0  0  0  0  0  0  0
  -15.2500  -25.5710  -12.4270 O   0  0  0  0  0  0  0  0  0  0  0  0
  -16.7780  -26.0160  -12.8640 P   0  0  0  0  0  0  0  0  0  0  0  0
  -16.7150  -26.0810  -14.4000 O   0  0  0  0  0  0  0  0  0  0  0  0
  -17.7380  -24.8900  -12.3950 O   0  0  0  0  0  0  0  0  0  0  0  0
  -17.0750  -27.4040  -12.2310 O   0  0  0  0  0  0  0  0  0  0  0  0
  1 15  1  6  0  0  0
  1  5  1  0  0  0  0
  2 17  1  6  0  0  0
  2  1  1  0  0  0  0
  2  3  1  0  0  0  0
  3  4  1  0  0  0  0
  4  5  1  0  0  0  0
  4  6  1  1  0  0  0
  6 12  2  0  0  0  0
  6  7  1  0  0  0  0
  7  8  2  0  0  0  0
  8 10  1  0  0  0  0
  8  9  1  0  0  0  0
 10 13  1  0  0  0  0
 11 10  2  0  0  0  0
 12 11  1  0  0  0  0
 13 14  1  0  0  0  0
 16 15  1  0  0  0  0
 18 17  1  0  0  0  0
 19 18  1  0  0  0  0
 19 21  1  0  0  0  0
 19 22  1  0  0  0  0
 20 19  2  0  0  0  0
M  END
>  <minimizedAffinity>
-7.65212822

$$$$

 OpenBabel12271914463D

 22 23  0  0  1  0  0  0  0  0999 V2000
  -19.1130  -25.9080   -5.6210 C   0  0  2  0  0  0  0  0  0  0  0  0
  -19.7120  -26.1880   -6.9870 C   0  0  2  0  0  0  0  0  0  0  0  0
  -18.6070  -25.8210   -7.8270 O   0  0  0  0  0  0  0  0  0  0  0  0
  -17.6050  -26.6710   -7.2890 C   0  0  2  0  0  0  0  0  0  0  0  0
  -17.7510  -26.5810   -5.7700 C   0  0  0  0  0  0  0  0  0  0  0  0
  -16.2250  -26.3240   -7.7210 C   0  0  0  0  0  0  0  0  0  0  0  0
  -16.0640  -25.9360   -9.0580 C   0  0  0  0  0  0  0  0  0  0  0  0
  -14.7970  -25.6980   -9.5540 C   0  0  0  0  0  0  0  0  0  0  0  0
  -14.6660  -25.3000  -10.9820 C   0  0  0  0  0  0  0  0  0  0  0  0
  -13.7240  -25.8310   -8.6900 C   0  0  0  0  0  0  0  0  0  0  0  0
  -13.8650  -26.1910   -7.4000 N   0  0  0  0  0  0  0  0  0  0  0  0
  -15.1030  -26.4380   -6.9270 C   0  0  0  0  0  0  0  0  0  0  0  0
  -12.4520  -25.6120   -9.1500 O   0  0  0  0  0  0  0  0  0  0  0  0
  -12.2520  -24.6490   -9.1700 H   0  0  0  0  0  0  0  0  0  0  0  0
  -19.7960  -26.4520   -4.5180 O   0  0  0  0  0  0  0  0  0  0  0  0
  -20.3160  -25.7440   -4.0910 H   0  0  0  0  0  0  0  0  0  0  0  0
  -20.9920  -25.4880   -7.3330 C   0  0  0  0  0  0  0  0  0  0  0  0
  -21.3550  -25.9210   -8.6290 O   0  0  0  0  0  0  0  0  0  0  0  0
  -22.4250  -24.9820   -9.4640 P   0  0  0  0  0  0  0  0  0  0  0  0
  -22.5840  -23.7330   -8.5790 O   0  0  0  0  0  0  0  0  0  0  0  0
  -23.7580  -25.7720   -9.5540 O   0  0  0  0  0  0  0  0  0  0  0  0
  -21.7950  -24.6450  -10.8440 O   0  0  0  0  0  0  0  0  0  0  0  0
  1 15  1  1  0  0  0
  2 17  1  6  0  0  0
  2  1  1  0  0  0  0
  3  4  1  0  0  0  0
  3  2  1  0  0  0  0
  4  6  1  1  0  0  0
  4  5  1  0  0  0  0
  5  1  1  0  0  0  0
  6 12  2  0  0  0  0
  7  6  1  0  0  0  0
  8  7  2  0  0  0  0
  8 10  1  0  0  0  0
  9  8  1  0  0  0  0
 10 11  2  0  0  0  0
 11 12  1  0  0  0  0
 13 10  1  0  0  0  0
 14 13  1  0  0  0  0
 15 16  1  0  0  0  0
 18 17  1  0  0  0  0
 19 18  1  0  0  0  0
 19 20  1  0  0  0  0
 21 19  1  0  0  0  0
 22 19  2  0  0  0  0
M  END
>  <minimizedAffinity>
-7.40917969

$$$$

 OpenBabel12271914463D

 22 23  0  0  1  0  0  0  0  0999 V2000
  -13.1610  -25.9490  -11.3000 C   0  0  2  0  0  0  0  0  0  0  0  0
  -14.5490  -25.5320  -11.7490 C   0  0  2  0  0  0  0  0  0  0  0  0
  -15.3380  -26.1130  -10.6990 O   0  0  0  0  0  0  0  0  0  0  0  0
  -14.7280  -25.5010   -9.5730 C   0  0  2  0  0  0  0  0  0  0  0  0
  -13.2210  -25.5770   -9.8210 C   0  0  0  0  0  0  0  0  0  0  0  0
  -15.0950  -26.1260   -8.2750 C   0  0  0  0  0  0  0  0  0  0  0  0
  -16.2770  -25.6750   -7.6720 C   0  0  0  0  0  0  0  0  0  0  0  0
  -16.6260  -26.1370   -6.4190 C   0  0  0  0  0  0  0  0  0  0  0  0
  -17.8820  -25.6250   -5.8080 C   0  0  0  0  0  0  0  0  0  0  0  0
  -15.7940  -27.0610   -5.8100 C   0  0  0  0  0  0  0  0  0  0  0  0
  -14.6620  -27.5130   -6.3830 N   0  0  0  0  0  0  0  0  0  0  0  0
  -14.3180  -27.0450   -7.6000 C   0  0  0  0  0  0  0  0  0  0  0  0
  -16.1050  -27.5350   -4.5630 O   0  0  0  0  0  0  0  0  0  0  0  0
  -16.7740  -28.2520   -4.6210 H   0  0  0  0  0  0  0  0  0  0  0  0
  -12.0820  -25.2880  -11.9160 O   0  0  0  0  0  0  0  0  0  0  0  0
  -11.7000  -25.8760  -12.5960 H   0  0  0  0  0  0  0  0  0  0  0  0
  -14.9790  -25.9410  -13.1260 C   0  0  0  0  0  0  0  0  0  0  0  0
  -13.8320  -26.4510  -13.7750 O   0  0  0  0  0  0  0  0  0  0  0  0
  -13.4120  -25.7580  -15.2130 P   0  0  0  0  0  0  0  0  0  0  0  0
  -12.8690  -26.9350  -16.0420 O   0  0  0  0  0  0  0  0  0  0  0  0
  -12.2920  -24.7250  -14.9170 O   0  0  0  0  0  0  0  0  0  0  0  0
  -14.6920  -25.1400  -15.8410 O   0  0  0  0  0  0  0  0  0  0  0  0
  1 15  1  6  0  0  0
  1  5  1  0  0  0  0
  2 17  1  6  0  0  0
  2  1  1  0  0  0  0
  2  3  1  0  0  0  0
  3  4  1  0  0  0  0
  4  6  1  1  0  0  0
  5  4  1  0  0  0  0
  6  7  1  0  0  0  0
  6 12  2  0  0  0  0
  7  8  2  0  0  0  0
  8 10  1  0  0  0  0
  8  9  1  0  0  0  0
 10 13  1  0  0  0  0
 11 10  2  0  0  0  0
 12 11  1  0  0  0  0
 14 13  1  0  0  0  0
 16 15  1  0  0  0  0
 18 17  1  0  0  0  0
 19 21  1  0  0  0  0
 19 18  1  0  0  0  0
 20 19  2  0  0  0  0
 22 19  1  0  0  0  0
M  END
>  <minimizedAffinity>
-7.17822886

$$$$

 OpenBabel12271914463D

 22 23  0  0  1  0  0  0  0  0999 V2000
  -19.3920  -25.8670   -6.0470 C   0  0  2  0  0  0  0  0  0  0  0  0
  -20.3270  -26.1320   -7.2130 C   0  0  2  0  0  0  0  0  0  0  0  0
  -19.4610  -25.8050   -8.3100 O   0  0  0  0  0  0  0  0  0  0  0  0
  -18.3820  -26.6860   -8.0340 C   0  0  2  0  0  0  0  0  0  0  0  0
  -18.1350  -26.5850   -6.5290 C   0  0  0  0  0  0  0  0  0  0  0  0
  -17.1470  -26.3870   -8.8070 C   0  0  0  0  0  0  0  0  0  0  0  0
  -15.9410  -26.3990   -8.0930 C   0  0  0  0  0  0  0  0  0  0  0  0
  -14.7680  -26.0320   -8.7240 C   0  0  0  0  0  0  0  0  0  0  0  0
  -13.5110  -26.0470   -7.9300 C   0  0  0  0  0  0  0  0  0  0  0  0
  -14.8300  -25.6860  -10.0620 C   0  0  0  0  0  0  0  0  0  0  0  0
  -15.9800  -25.6830  -10.7640 N   0  0  0  0  0  0  0  0  0  0  0  0
  -17.1240  -26.0260  -10.1370 C   0  0  0  0  0  0  0  0  0  0  0  0
  -13.6880  -25.3080  -10.7190 O   0  0  0  0  0  0  0  0  0  0  0  0
  -13.1720  -26.0970  -10.9990 H   0  0  0  0  0  0  0  0  0  0  0  0
  -19.7900  -26.3830   -4.8000 O   0  0  0  0  0  0  0  0  0  0  0  0
  -20.1610  -25.6560   -4.2640 H   0  0  0  0  0  0  0  0  0  0  0  0
  -21.6300  -25.3910   -7.2320 C   0  0  0  0  0  0  0  0  0  0  0  0
  -22.4710  -26.0230   -6.2880 O   0  0  0  0  0  0  0  0  0  0  0  0
  -24.0990  -25.8680   -6.5080 P   0  0  0  0  0  0  0  0  0  0  0  0
  -24.6660  -27.2100   -6.0120 O   0  0  0  0  0  0  0  0  0  0  0  0
  -24.3440  -25.6900   -8.0300 O   0  0  0  0  0  0  0  0  0  0  0  0
  -24.5890  -24.6720   -5.6450 O   0  0  0  0  0  0  0  0  0  0  0  0
  1 15  1  1  0  0  0
  2 17  1  1  0  0  0
  2  1  1  0  0  0  0
  3  4  1  0  0  0  0
  3  2  1  0  0  0  0
  4  6  1  6  0  0  0
  4  5  1  0  0  0  0
  5  1  1  0  0  0  0
  6  7  1  0  0  0  0
  8  7  2  0  0  0  0
  8  9  1  0  0  0  0
 10  8  1  0  0  0  0
 11 12  1  0  0  0  0
 11 10  2  0  0  0  0
 12  6  2  0  0  0  0
 13 10  1  0  0  0  0
 14 13  1  0  0  0  0
 15 16  1  0  0  0  0
 17 18  1  0  0  0  0
 19 18  1  0  0  0  0
 19 20  1  0  0  0  0
 19 22  1  0  0  0  0
 21 19  2  0  0  0  0
M  END
>  <minimizedAffinity>
-7.09888887

$$$$

 OpenBabel12271914463D

 22 23  0  0  1  0  0  0  0  0999 V2000
  -19.4290  -25.8530   -6.1090 C   0  0  2  0  0  0  0  0  0  0  0  0
  -20.3060  -26.3990   -7.2210 C   0  0  2  0  0  0  0  0  0  0  0  0
  -19.4840  -26.0990   -8.3600 O   0  0  0  0  0  0  0  0  0  0  0  0
  -18.2930  -26.7720   -7.9810 C   0  0  2  0  0  0  0  0  0  0  0  0
  -18.0780  -26.4410   -6.5040 C   0  0  0  0  0  0  0  0  0  0  0  0
  -17.1060  -26.4040   -8.7970 C   0  0  0  0  0  0  0  0  0  0  0  0
  -15.8690  -26.3980   -8.1400 C   0  0  0  0  0  0  0  0  0  0  0  0
  -14.7400  -25.9680   -8.8100 C   0  0  0  0  0  0  0  0  0  0  0  0
  -13.4470  -25.9650   -8.0740 C   0  0  0  0  0  0  0  0  0  0  0  0
  -14.8760  -25.5790  -10.1310 C   0  0  0  0  0  0  0  0  0  0  0  0
  -16.0560  -25.5920  -10.7790 N   0  0  0  0  0  0  0  0  0  0  0  0
  -17.1570  -25.9970  -10.1140 C   0  0  0  0  0  0  0  0  0  0  0  0
  -13.7780  -25.1390  -10.8240 O   0  0  0  0  0  0  0  0  0  0  0  0
  -13.2500  -25.8990  -11.1550 H   0  0  0  0  0  0  0  0  0  0  0  0
  -19.7610  -26.2530   -4.8020 O   0  0  0  0  0  0  0  0  0  0  0  0
  -20.2370  -25.5230   -4.3610 H   0  0  0  0  0  0  0  0  0  0  0  0
  -21.7010  -25.8600   -7.3240 C   0  0  0  0  0  0  0  0  0  0  0  0
  -21.6000  -24.5820   -7.9190 O   0  0  0  0  0  0  0  0  0  0  0  0
  -22.7350  -24.1870   -9.0510 P   0  0  0  0  0  0  0  0  0  0  0  0
  -22.4450  -25.1550  -10.2130 O   0  0  0  0  0  0  0  0  0  0  0  0
  -22.4720  -22.7180   -9.4740 O   0  0  0  0  0  0  0  0  0  0  0  0
  -24.1380  -24.4250   -8.4280 O   0  0  0  0  0  0  0  0  0  0  0  0
  1 15  1  1  0  0  0
  2 17  1  6  0  0  0
  2  1  1  0  0  0  0
  3  4  1  0  0  0  0
  3  2  1  0  0  0  0
  4  6  1  6  0  0  0
  4  5  1  0  0  0  0
  5  1  1  0  0  0  0
  6  7  1  0  0  0  0
  8  7  2  0  0  0  0
  8  9  1  0  0  0  0
 10  8  1  0  0  0  0
 11 10  2  0  0  0  0
 11 12  1  0  0  0  0
 12  6  2  0  0  0  0
 13 10  1  0  0  0  0
 14 13  1  0  0  0  0
 15 16  1  0  0  0  0
 18 17  1  0  0  0  0
 19 22  1  0  0  0  0
 19 18  1  0  0  0  0
 20 19  2  0  0  0  0
 21 19  1  0  0  0  0
M  END
>  <minimizedAffinity>
-7.03847456

$$$$
