
 OpenBabel12271914423D

 22 23  0  0  1  0  0  0  0  0999 V2000
  -13.2550  -26.2040  -10.0020 C   0  0  2  0  0  0  0  0  0  0  0  0
  -14.4750  -25.2870  -10.2450 C   0  0  2  0  0  0  0  0  0  0  0  0
  -15.2770  -25.3310   -9.0430 O   0  0  0  0  0  0  0  0  0  0  0  0
  -14.4360  -25.8020   -7.9960 C   0  0  2  0  0  0  0  0  0  0  0  0
  -13.5370  -26.8400   -8.6550 C   0  0  0  0  0  0  0  0  0  0  0  0
  -15.2470  -26.2750   -6.8250 C   0  0  0  0  0  0  0  0  0  0  0  0
  -14.6840  -27.2070   -5.9410 C   0  0  0  0  0  0  0  0  0  0  0  0
  -15.4060  -27.6370   -4.8190 C   0  0  0  0  0  0  0  0  0  0  0  0
  -14.7330  -28.5870   -3.8850 C   0  0  0  0  0  0  0  0  0  0  0  0
  -16.6810  -27.1580   -4.6830 C   0  0  0  0  0  0  0  0  0  0  0  0
  -17.2760  -26.2900   -5.5220 N   0  0  0  0  0  0  0  0  0  0  0  0
  -16.5350  -25.8540   -6.5690 C   0  0  0  0  0  0  0  0  0  0  0  0
  -17.4980  -27.5530   -3.6610 O   0  0  0  0  0  0  0  0  0  0  0  0
  -17.2970  -28.4780   -3.5190 H   0  0  0  0  0  0  0  0  0  0  0  0
  -12.0400  -25.4380   -9.9030 O   0  0  0  0  0  0  0  0  0  0  0  0
  -11.9620  -25.0980   -9.0030 H   0  0  0  0  0  0  0  0  0  0  0  0
  -15.2930  -25.6400  -11.5110 C   0  0  0  0  0  0  0  0  0  0  0  0
  -15.4680  -27.0040  -11.7100 O   0  0  0  0  0  0  0  0  0  0  0  0
  -16.9230  -27.5840  -11.2490 P   0  0  0  0  0  0  0  0  0  0  0  0
  -16.6200  -28.2610   -9.9270 O   0  0  0  0  0  0  0  0  0  0  0  0
  -17.8100  -26.3710  -11.1480 O   0  0  0  0  0  0  0  0  0  0  0  0
  -17.2870  -28.5680  -12.3520 O   0  0  0  0  0  0  0  0  0  0  0  0
  1 15  1  1  0  0  0
  1  5  1  0  0  0  0
  2 17  1  6  0  0  0
  2  1  1  0  0  0  0
  2  3  1  0  0  0  0
  3  4  1  0  0  0  0
  4  6  1  1  0  0  0
  5  4  1  0  0  0  0
  6 12  2  0  0  0  0
  6  7  1  0  0  0  0
  7  8  2  0  0  0  0
  8 10  1  0  0  0  0
  8  9  1  0  0  0  0
 10 13  1  0  0  0  0
 11 10  2  0  0  0  0
 12 11  1  0  0  0  0
 13 14  1  0  0  0  0
 15 16  1  0  0  0  0
 18 17  1  0  0  0  0
 18 19  1  0  0  0  0
 19 21  1  0  0  0  0
 19 20  1  0  0  0  0
 22 19  2  0  0  0  0
M  END
>  <minimizedAffinity>
-7.85749197

$$$$

 OpenBabel12271914423D

 22 23  0  0  1  0  0  0  0  0999 V2000
  -13.3670  -26.1990  -10.0080 C   0  0  2  0  0  0  0  0  0  0  0  0
  -14.5860  -25.2560  -10.1290 C   0  0  2  0  0  0  0  0  0  0  0  0
  -15.3160  -25.3570   -8.8850 O   0  0  0  0  0  0  0  0  0  0  0  0
  -14.4220  -25.8930   -7.9160 C   0  0  2  0  0  0  0  0  0  0  0  0
  -13.5780  -26.9040   -8.6820 C   0  0  0  0  0  0  0  0  0  0  0  0
  -15.1700  -26.4190   -6.7260 C   0  0  0  0  0  0  0  0  0  0  0  0
  -16.4700  -25.9530   -6.4800 C   0  0  0  0  0  0  0  0  0  0  0  0
  -17.2030  -26.4560   -5.3970 C   0  0  0  0  0  0  0  0  0  0  0  0
  -18.6020  -25.9640   -5.2190 C   0  0  0  0  0  0  0  0  0  0  0  0
  -16.5670  -27.3500   -4.5790 C   0  0  0  0  0  0  0  0  0  0  0  0
  -15.3110  -27.8000   -4.7540 N   0  0  0  0  0  0  0  0  0  0  0  0
  -14.6450  -27.3340   -5.8380 C   0  0  0  0  0  0  0  0  0  0  0  0
  -17.1630  -27.8610   -3.4620 O   0  0  0  0  0  0  0  0  0  0  0  0
  -17.6840  -27.1440   -3.1010 H   0  0  0  0  0  0  0  0  0  0  0  0
  -12.1370  -25.4530   -9.9400 O   0  0  0  0  0  0  0  0  0  0  0  0
  -12.0020  -25.1630   -9.0290 H   0  0  0  0  0  0  0  0  0  0  0  0
  -15.4810  -25.5310  -11.3600 C   0  0  0  0  0  0  0  0  0  0  0  0
  -15.5400  -26.8690  -11.7310 O   0  0  0  0  0  0  0  0  0  0  0  0
  -16.9160  -27.6390  -11.3100 P   0  0  0  0  0  0  0  0  0  0  0  0
  -17.9320  -26.5150  -11.2420 O   0  0  0  0  0  0  0  0  0  0  0  0
  -17.1550  -28.6390  -12.4120 O   0  0  0  0  0  0  0  0  0  0  0  0
  -16.5960  -28.2350   -9.9470 O   0  0  0  0  0  0  0  0  0  0  0  0
  1 15  1  1  0  0  0
  1  5  1  0  0  0  0
  2 17  1  6  0  0  0
  2  1  1  0  0  0  0
  2  3  1  0  0  0  0
  3  4  1  0  0  0  0
  4  6  1  1  0  0  0
  5  4  1  0  0  0  0
  6  7  1  0  0  0  0
  6 12  2  0  0  0  0
  7  8  2  0  0  0  0
  8  9  1  0  0  0  0
  8 10  1  0  0  0  0
 10 13  1  0  0  0  0
 11 10  2  0  0  0  0
 12 11  1  0  0  0  0
 13 14  1  0  0  0  0
 15 16  1  0  0  0  0
 18 17  1  0  0  0  0
 18 19  1  0  0  0  0
 19 20  1  0  0  0  0
 19 22  1  0  0  0  0
 21 19  2  0  0  0  0
M  END
>  <minimizedAffinity>
-7.69680834

$$$$

 OpenBabel12271914423D

 22 23  0  0  1  0  0  0  0  0999 V2000
  -13.2500  -26.1820   -9.9800 C   0  0  2  0  0  0  0  0  0  0  0  0
  -14.5030  -25.3150  -10.2370 C   0  0  2  0  0  0  0  0  0  0  0  0
  -15.3050  -25.3730   -9.0360 O   0  0  0  0  0  0  0  0  0  0  0  0
  -14.4490  -25.7970   -7.9810 C   0  0  2  0  0  0  0  0  0  0  0  0
  -13.5100  -26.8100   -8.6240 C   0  0  0  0  0  0  0  0  0  0  0  0
  -15.2440  -26.2840   -6.8040 C   0  0  0  0  0  0  0  0  0  0  0  0
  -14.6660  -27.2220   -5.9360 C   0  0  0  0  0  0  0  0  0  0  0  0
  -15.3730  -27.6640   -4.8100 C   0  0  0  0  0  0  0  0  0  0  0  0
  -14.6850  -28.6200   -3.8910 C   0  0  0  0  0  0  0  0  0  0  0  0
  -16.6480  -27.1930   -4.6530 C   0  0  0  0  0  0  0  0  0  0  0  0
  -17.2570  -26.3200   -5.4770 N   0  0  0  0  0  0  0  0  0  0  0  0
  -16.5300  -25.8720   -6.5290 C   0  0  0  0  0  0  0  0  0  0  0  0
  -17.4510  -27.6000   -3.6260 O   0  0  0  0  0  0  0  0  0  0  0  0
  -17.2450  -28.5260   -3.4950 H   0  0  0  0  0  0  0  0  0  0  0  0
  -12.0650  -25.3690   -9.8900 O   0  0  0  0  0  0  0  0  0  0  0  0
  -12.0020  -25.0140   -8.9940 H   0  0  0  0  0  0  0  0  0  0  0  0
  -15.3040  -25.7170  -11.4990 C   0  0  0  0  0  0  0  0  0  0  0  0
  -14.8550  -26.8810  -12.1100 O   0  0  0  0  0  0  0  0  0  0  0  0
  -14.3300  -26.6940  -13.6440 P   0  0  0  0  0  0  0  0  0  0  0  0
  -15.5790  -26.2500  -14.3820 O   0  0  0  0  0  0  0  0  0  0  0  0
  -13.2450  -25.6520  -13.5590 O   0  0  0  0  0  0  0  0  0  0  0  0
  -13.8670  -28.0880  -14.0430 O   0  0  0  0  0  0  0  0  0  0  0  0
  1 15  1  1  0  0  0
  1  5  1  0  0  0  0
  2 17  1  6  0  0  0
  2  1  1  0  0  0  0
  2  3  1  0  0  0  0
  3  4  1  0  0  0  0
  4  6  1  1  0  0  0
  5  4  1  0  0  0  0
  6 12  2  0  0  0  0
  6  7  1  0  0  0  0
  7  8  2  0  0  0  0
  8 10  1  0  0  0  0
  8  9  1  0  0  0  0
 10 13  1  0  0  0  0
 11 10  2  0  0  0  0
 12 11  1  0  0  0  0
 13 14  1  0  0  0  0
 15 16  1  0  0  0  0
 18 17  1  0  0  0  0
 19 21  1  0  0  0  0
 19 18  1  0  0  0  0
 20 19  2  0  0  0  0
 22 19  1  0  0  0  0
M  END
>  <minimizedAffinity>
-7.69312572

$$$$

 OpenBabel12271914423D

 22 23  0  0  1  0  0  0  0  0999 V2000
  -19.6680  -25.5480   -6.4170 C   0  0  2  0  0  0  0  0  0  0  0  0
  -19.8000  -26.5700   -7.5690 C   0  0  2  0  0  0  0  0  0  0  0  0
  -18.4660  -26.7970   -8.0800 O   0  0  0  0  0  0  0  0  0  0  0  0
  -17.5550  -26.3750   -7.0730 C   0  0  2  0  0  0  0  0  0  0  0  0
  -18.2060  -25.1490   -6.4460 C   0  0  0  0  0  0  0  0  0  0  0  0
  -16.1780  -26.1790   -7.6400 C   0  0  0  0  0  0  0  0  0  0  0  0
  -16.0450  -25.8330   -8.9930 C   0  0  0  0  0  0  0  0  0  0  0  0
  -14.7730  -25.6070   -9.5380 C   0  0  0  0  0  0  0  0  0  0  0  0
  -14.6980  -25.1870  -10.9690 C   0  0  0  0  0  0  0  0  0  0  0  0
  -13.7010  -25.8070   -8.7120 C   0  0  0  0  0  0  0  0  0  0  0  0
  -13.7770  -26.1720   -7.4190 N   0  0  0  0  0  0  0  0  0  0  0  0
  -15.0210  -26.3330   -6.9070 C   0  0  0  0  0  0  0  0  0  0  0  0
  -12.4140  -25.6740   -9.1500 O   0  0  0  0  0  0  0  0  0  0  0  0
  -12.4170  -26.0050  -10.0490 H   0  0  0  0  0  0  0  0  0  0  0  0
  -19.9520  -26.1600   -5.1450 O   0  0  0  0  0  0  0  0  0  0  0  0
  -19.1560  -26.6100   -4.8350 H   0  0  0  0  0  0  0  0  0  0  0  0
  -20.7910  -26.1490   -8.6800 C   0  0  0  0  0  0  0  0  0  0  0  0
  -21.6120  -25.0830   -8.3340 O   0  0  0  0  0  0  0  0  0  0  0  0
  -22.5600  -24.5250   -9.5410 P   0  0  0  0  0  0  0  0  0  0  0  0
  -22.7620  -23.0680   -9.1740 O   0  0  0  0  0  0  0  0  0  0  0  0
  -21.7620  -24.7540  -10.7980 O   0  0  0  0  0  0  0  0  0  0  0  0
  -23.8310  -25.3530   -9.4160 O   0  0  0  0  0  0  0  0  0  0  0  0
  1 15  1  1  0  0  0
  2 17  1  6  0  0  0
  2  1  1  0  0  0  0
  3  2  1  0  0  0  0
  3  4  1  0  0  0  0
  4  6  1  6  0  0  0
  4  5  1  0  0  0  0
  5  1  1  0  0  0  0
  6 12  2  0  0  0  0
  7  6  1  0  0  0  0
  8  7  2  0  0  0  0
  8 10  1  0  0  0  0
  9  8  1  0  0  0  0
 10 11  2  0  0  0  0
 11 12  1  0  0  0  0
 13 10  1  0  0  0  0
 14 13  1  0  0  0  0
 15 16  1  0  0  0  0
 17 18  1  0  0  0  0
 19 22  1  0  0  0  0
 19 20  1  0  0  0  0
 19 18  1  0  0  0  0
 21 19  2  0  0  0  0
M  END
>  <minimizedAffinity>
-7.46134424

$$$$

 OpenBabel12271914423D

 22 23  0  0  1  0  0  0  0  0999 V2000
  -13.3080  -26.3670   -9.7480 C   0  0  2  0  0  0  0  0  0  0  0  0
  -14.5660  -25.4960   -9.9670 C   0  0  2  0  0  0  0  0  0  0  0  0
  -15.3410  -25.5690   -8.7480 O   0  0  0  0  0  0  0  0  0  0  0  0
  -14.4620  -26.0060   -7.7190 C   0  0  2  0  0  0  0  0  0  0  0  0
  -13.5380  -27.0110   -8.3950 C   0  0  0  0  0  0  0  0  0  0  0  0
  -15.2310  -26.5070   -6.5300 C   0  0  0  0  0  0  0  0  0  0  0  0
  -16.5390  -26.0440   -6.3240 C   0  0  0  0  0  0  0  0  0  0  0  0
  -17.2920  -26.5250   -5.2440 C   0  0  0  0  0  0  0  0  0  0  0  0
  -18.6970  -26.0380   -5.1080 C   0  0  0  0  0  0  0  0  0  0  0  0
  -16.6670  -27.3920   -4.3900 C   0  0  0  0  0  0  0  0  0  0  0  0
  -15.4040  -27.8380   -4.5270 N   0  0  0  0  0  0  0  0  0  0  0  0
  -14.7190  -27.3950   -5.6090 C   0  0  0  0  0  0  0  0  0  0  0  0
  -17.2820  -27.8790   -3.2720 O   0  0  0  0  0  0  0  0  0  0  0  0
  -17.8160  -27.1560   -2.9410 H   0  0  0  0  0  0  0  0  0  0  0  0
  -12.1210  -25.5560   -9.6740 O   0  0  0  0  0  0  0  0  0  0  0  0
  -12.0370  -25.2120   -8.7760 H   0  0  0  0  0  0  0  0  0  0  0  0
  -15.3960  -25.8820  -11.2150 C   0  0  0  0  0  0  0  0  0  0  0  0
  -14.9170  -26.9970  -11.8920 O   0  0  0  0  0  0  0  0  0  0  0  0
  -14.7730  -26.8110  -13.5080 P   0  0  0  0  0  0  0  0  0  0  0  0
  -13.4800  -26.0320  -13.6500 O   0  0  0  0  0  0  0  0  0  0  0  0
  -14.7290  -28.2130  -14.0580 O   0  0  0  0  0  0  0  0  0  0  0  0
  -16.0030  -25.9990  -13.8900 O   0  0  0  0  0  0  0  0  0  0  0  0
  1 15  1  1  0  0  0
  1  5  1  0  0  0  0
  2 17  1  6  0  0  0
  2  1  1  0  0  0  0
  2  3  1  0  0  0  0
  3  4  1  0  0  0  0
  4  6  1  1  0  0  0
  5  4  1  0  0  0  0
  6  7  1  0  0  0  0
  6 12  2  0  0  0  0
  7  8  2  0  0  0  0
  8  9  1  0  0  0  0
  8 10  1  0  0  0  0
 10 13  1  0  0  0  0
 11 10  2  0  0  0  0
 12 11  1  0  0  0  0
 13 14  1  0  0  0  0
 15 16  1  0  0  0  0
 18 17  1  0  0  0  0
 19 18  1  0  0  0  0
 20 19  1  0  0  0  0
 21 19  2  0  0  0  0
 22 19  1  0  0  0  0
M  END
>  <minimizedAffinity>
-7.362082

$$$$

 OpenBabel12271914423D

 22 23  0  0  1  0  0  0  0  0999 V2000
  -23.2100  -24.9420   -8.6610 C   0  0  2  0  0  0  0  0  0  0  0  0
  -23.4510  -25.1200   -7.1450 C   0  0  2  0  0  0  0  0  0  0  0  0
  -22.1850  -25.5050   -6.5630 O   0  0  0  0  0  0  0  0  0  0  0  0
  -21.1690  -25.1320   -7.4870 C   0  0  2  0  0  0  0  0  0  0  0  0
  -21.7750  -25.3920   -8.8600 C   0  0  0  0  0  0  0  0  0  0  0  0
  -19.8800  -25.8410   -7.1860 C   0  0  0  0  0  0  0  0  0  0  0  0
  -19.2670  -26.5930   -8.1990 C   0  0  0  0  0  0  0  0  0  0  0  0
  -18.0440  -27.2340   -7.9550 C   0  0  0  0  0  0  0  0  0  0  0  0
  -17.4110  -27.9720   -9.0880 C   0  0  0  0  0  0  0  0  0  0  0  0
  -17.5380  -27.1420   -6.6870 C   0  0  0  0  0  0  0  0  0  0  0  0
  -18.1070  -26.4620   -5.6750 N   0  0  0  0  0  0  0  0  0  0  0  0
  -19.2620  -25.8100   -5.9540 C   0  0  0  0  0  0  0  0  0  0  0  0
  -16.3850  -27.7740   -6.3190 O   0  0  0  0  0  0  0  0  0  0  0  0
  -16.3900  -28.6070   -6.7920 H   0  0  0  0  0  0  0  0  0  0  0  0
  -23.3150  -23.5580   -9.0460 O   0  0  0  0  0  0  0  0  0  0  0  0
  -22.4730  -23.1230   -8.8620 H   0  0  0  0  0  0  0  0  0  0  0  0
  -24.5850  -26.1140   -6.7960 C   0  0  0  0  0  0  0  0  0  0  0  0
  -25.7840  -25.8590   -7.4500 O   0  0  0  0  0  0  0  0  0  0  0  0
  -26.7920  -24.8410   -6.6670 P   0  0  0  0  0  0  0  0  0  0  0  0
  -26.6650  -25.2770   -5.2210 O   0  0  0  0  0  0  0  0  0  0  0  0
  -26.2560  -23.4640   -6.9600 O   0  0  0  0  0  0  0  0  0  0  0  0
  -28.1570  -25.1500   -7.2650 O   0  0  0  0  0  0  0  0  0  0  0  0
  1 15  1  1  0  0  0
  1  2  1  0  0  0  0
  2 17  1  6  0  0  0
  2  3  1  0  0  0  0
  4  6  1  1  0  0  0
  4  3  1  0  0  0  0
  5  1  1  0  0  0  0
  5  4  1  0  0  0  0
  6 12  2  0  0  0  0
  7  8  2  0  0  0  0
  7  6  1  0  0  0  0
  8 10  1  0  0  0  0
  9  8  1  0  0  0  0
 10 13  1  0  0  0  0
 10 11  2  0  0  0  0
 12 11  1  0  0  0  0
 14 13  1  0  0  0  0
 15 16  1  0  0  0  0
 18 17  1  0  0  0  0
 18 19  1  0  0  0  0
 19 20  1  0  0  0  0
 21 19  1  0  0  0  0
 22 19  2  0  0  0  0
M  END
>  <minimizedAffinity>
-6.81091785

$$$$

 OpenBabel12271914423D

 22 23  0  0  1  0  0  0  0  0999 V2000
  -21.0740  -26.4450   -8.9510 C   0  0  2  0  0  0  0  0  0  0  0  0
  -21.3590  -25.5860   -7.6980 C   0  0  2  0  0  0  0  0  0  0  0  0
  -20.1590  -25.6120   -6.8920 O   0  0  0  0  0  0  0  0  0  0  0  0
  -19.0910  -26.0060   -7.7450 C   0  0  2  0  0  0  0  0  0  0  0  0
  -19.7020  -27.0350   -8.6870 C   0  0  0  0  0  0  0  0  0  0  0  0
  -17.9040  -26.4610   -6.9460 C   0  0  0  0  0  0  0  0  0  0  0  0
  -16.7030  -26.7410   -7.6150 C   0  0  0  0  0  0  0  0  0  0  0  0
  -15.5690  -27.1310   -6.8880 C   0  0  0  0  0  0  0  0  0  0  0  0
  -14.3040  -27.3600   -7.6480 C   0  0  0  0  0  0  0  0  0  0  0  0
  -15.7220  -27.2870   -5.5370 C   0  0  0  0  0  0  0  0  0  0  0  0
  -16.8620  -27.0640   -4.8570 N   0  0  0  0  0  0  0  0  0  0  0  0
  -17.9260  -26.6390   -5.5790 C   0  0  0  0  0  0  0  0  0  0  0  0
  -14.7030  -27.7200   -4.7370 O   0  0  0  0  0  0  0  0  0  0  0  0
  -14.2270  -28.3660   -5.2600 H   0  0  0  0  0  0  0  0  0  0  0  0
  -21.0010  -25.6280  -10.1350 O   0  0  0  0  0  0  0  0  0  0  0  0
  -20.1160  -25.2490  -10.1950 H   0  0  0  0  0  0  0  0  0  0  0  0
  -22.6120  -26.0230   -6.9020 C   0  0  0  0  0  0  0  0  0  0  0  0
  -23.4430  -24.9730   -6.5310 O   0  0  0  0  0  0  0  0  0  0  0  0
  -24.9340  -25.4190   -6.0350 P   0  0  0  0  0  0  0  0  0  0  0  0
  -25.7870  -24.2170   -6.3900 O   0  0  0  0  0  0  0  0  0  0  0  0
  -25.2460  -26.6670   -6.8180 O   0  0  0  0  0  0  0  0  0  0  0  0
  -24.7740  -25.6130   -4.5340 O   0  0  0  0  0  0  0  0  0  0  0  0
  1 15  1  6  0  0  0
  1  5  1  0  0  0  0
  1  2  1  0  0  0  0
  2 17  1  1  0  0  0
  2  3  1  0  0  0  0
  4  6  1  1  0  0  0
  4  3  1  0  0  0  0
  5  4  1  0  0  0  0
  6 12  2  0  0  0  0
  7  6  1  0  0  0  0
  7  8  2  0  0  0  0
  8 10  1  0  0  0  0
  9  8  1  0  0  0  0
 10 11  2  0  0  0  0
 10 13  1  0  0  0  0
 12 11  1  0  0  0  0
 14 13  1  0  0  0  0
 16 15  1  0  0  0  0
 17 18  1  0  0  0  0
 18 19  1  0  0  0  0
 19 22  1  0  0  0  0
 20 19  1  0  0  0  0
 21 19  2  0  0  0  0
M  END
>  <minimizedAffinity>
-6.65878105

$$$$

 OpenBabel12271914423D

 22 23  0  0  1  0  0  0  0  0999 V2000
  -25.4870  -27.5150   -4.9110 C   0  0  2  0  0  0  0  0  0  0  0  0
  -24.7850  -26.2540   -5.4630 C   0  0  2  0  0  0  0  0  0  0  0  0
  -24.8220  -25.2620   -4.4110 O   0  0  0  0  0  0  0  0  0  0  0  0
  -25.0570  -25.9550   -3.1910 C   0  0  2  0  0  0  0  0  0  0  0  0
  -26.0160  -27.0800   -3.5590 C   0  0  0  0  0  0  0  0  0  0  0  0
  -25.5210  -25.0130   -2.1170 C   0  0  0  0  0  0  0  0  0  0  0  0
  -25.6890  -23.6560   -2.4310 C   0  0  0  0  0  0  0  0  0  0  0  0
  -26.1560  -22.7630   -1.4560 C   0  0  0  0  0  0  0  0  0  0  0  0
  -26.3690  -21.3420   -1.8650 C   0  0  0  0  0  0  0  0  0  0  0  0
  -26.3640  -23.2680   -0.2010 C   0  0  0  0  0  0  0  0  0  0  0  0
  -26.1840  -24.5530    0.1550 N   0  0  0  0  0  0  0  0  0  0  0  0
  -25.7810  -25.4020   -0.8200 C   0  0  0  0  0  0  0  0  0  0  0  0
  -26.7620  -22.4790    0.8400 O   0  0  0  0  0  0  0  0  0  0  0  0
  -26.3150  -21.6420    0.7100 H   0  0  0  0  0  0  0  0  0  0  0  0
  -24.5470  -28.5880   -4.7120 O   0  0  0  0  0  0  0  0  0  0  0  0
  -24.1100  -28.4610   -3.8610 H   0  0  0  0  0  0  0  0  0  0  0  0
  -25.3800  -25.7250   -6.7900 C   0  0  0  0  0  0  0  0  0  0  0  0
  -24.7300  -24.6060   -7.2970 O   0  0  0  0  0  0  0  0  0  0  0  0
  -23.3330  -24.9200   -8.0800 P   0  0  0  0  0  0  0  0  0  0  0  0
  -22.2890  -24.7800   -6.9900 O   0  0  0  0  0  0  0  0  0  0  0  0
  -23.4960  -26.3160   -8.6220 O   0  0  0  0  0  0  0  0  0  0  0  0
  -23.2490  -23.8190   -9.1290 O   0  0  0  0  0  0  0  0  0  0  0  0
  1 15  1  1  0  0  0
  1  5  1  0  0  0  0
  2 17  1  6  0  0  0
  2  1  1  0  0  0  0
  2  3  1  0  0  0  0
  3  4  1  0  0  0  0
  4  6  1  1  0  0  0
  5  4  1  0  0  0  0
  6 12  2  0  0  0  0
  7  6  1  0  0  0  0
  7  8  2  0  0  0  0
  8 10  1  0  0  0  0
  9  8  1  0  0  0  0
 10 11  2  0  0  0  0
 10 13  1  0  0  0  0
 12 11  1  0  0  0  0
 14 13  1  0  0  0  0
 15 16  1  0  0  0  0
 18 17  1  0  0  0  0
 19 18  1  0  0  0  0
 19 20  1  0  0  0  0
 21 19  1  0  0  0  0
 22 19  2  0  0  0  0
M  END
>  <minimizedAffinity>
-6.50969648

$$$$

 OpenBabel12271914423D

 22 23  0  0  1  0  0  0  0  0999 V2000
  -26.9790  -25.4450   -0.1200 C   0  0  2  0  0  0  0  0  0  0  0  0
  -28.2990  -24.8370   -0.6450 C   0  0  2  0  0  0  0  0  0  0  0  0
  -28.1660  -24.7270   -2.0800 O   0  0  0  0  0  0  0  0  0  0  0  0
  -27.1190  -25.6070   -2.4730 C   0  0  2  0  0  0  0  0  0  0  0  0
  -26.0940  -25.5190   -1.3490 C   0  0  0  0  0  0  0  0  0  0  0  0
  -26.6230  -25.2740   -3.8500 C   0  0  0  0  0  0  0  0  0  0  0  0
  -27.3340  -25.7520   -4.9610 C   0  0  0  0  0  0  0  0  0  0  0  0
  -26.9130  -25.4240   -6.2570 C   0  0  0  0  0  0  0  0  0  0  0  0
  -27.7420  -25.9140   -7.3990 C   0  0  0  0  0  0  0  0  0  0  0  0
  -25.7620  -24.6920   -6.3690 C   0  0  0  0  0  0  0  0  0  0  0  0
  -25.0290  -24.2420   -5.3350 N   0  0  0  0  0  0  0  0  0  0  0  0
  -25.4880  -24.5310   -4.0940 C   0  0  0  0  0  0  0  0  0  0  0  0
  -25.2270  -24.3650   -7.5820 O   0  0  0  0  0  0  0  0  0  0  0  0
  -25.3890  -25.1230   -8.1440 H   0  0  0  0  0  0  0  0  0  0  0  0
  -27.1840  -26.7810    0.3780 O   0  0  0  0  0  0  0  0  0  0  0  0
  -27.1690  -27.3940   -0.3680 H   0  0  0  0  0  0  0  0  0  0  0  0
  -28.6830  -23.4900    0.0150 C   0  0  0  0  0  0  0  0  0  0  0  0
  -27.5960  -22.6940    0.3530 O   0  0  0  0  0  0  0  0  0  0  0  0
  -27.3530  -21.4110   -0.6270 P   0  0  0  0  0  0  0  0  0  0  0  0
  -26.3170  -21.9210   -1.6100 O   0  0  0  0  0  0  0  0  0  0  0  0
  -28.7030  -21.1200   -1.2270 O   0  0  0  0  0  0  0  0  0  0  0  0
  -26.8090  -20.3390    0.3070 O   0  0  0  0  0  0  0  0  0  0  0  0
  1 15  1  6  0  0  0
  2  1  1  0  0  0  0
  2 17  1  1  0  0  0
  3  2  1  0  0  0  0
  4  6  1  6  0  0  0
  4  3  1  0  0  0  0
  4  5  1  0  0  0  0
  5  1  1  0  0  0  0
  7  6  1  0  0  0  0
  8  7  2  0  0  0  0
  9  8  1  0  0  0  0
 10  8  1  0  0  0  0
 10 11  2  0  0  0  0
 11 12  1  0  0  0  0
 12  6  2  0  0  0  0
 13 10  1  0  0  0  0
 14 13  1  0  0  0  0
 16 15  1  0  0  0  0
 17 18  1  0  0  0  0
 19 22  1  0  0  0  0
 19 18  1  0  0  0  0
 20 19  2  0  0  0  0
 21 19  1  0  0  0  0
M  END
>  <minimizedAffinity>
-6.38926792

$$$$
