
 OpenBabel12271914433D

 24 27  0  0  0  0  0  0  0  0999 V2000
  -16.4030  -25.5450   -9.6770 N   0  0  0  0  0  0  0  0  0  0  0  0
  -17.4470  -26.1460  -10.3290 C   0  0  0  0  0  0  0  0  0  0  0  0
  -18.7620  -26.3120   -9.9260 N   0  0  0  0  0  0  0  0  0  0  0  0
  -19.6870  -26.9110  -10.9110 C   0  0  0  0  0  0  0  0  0  0  0  0
  -21.0310  -26.1480  -10.9380 C   0  0  0  0  0  0  0  0  0  0  0  0
  -21.5730  -25.9280   -9.5670 N   0  0  0  0  0  0  0  0  0  0  0  0
  -22.5690  -26.1890   -9.5280 H   0  0  0  0  0  0  0  0  0  0  0  0
  -21.4780  -24.9220   -9.3630 H   0  0  0  0  0  0  0  0  0  0  0  0
  -20.7730  -26.6580   -8.5320 C   0  0  0  0  0  0  0  0  0  0  0  0
  -19.3110  -26.1200   -8.5970 C   0  0  0  0  0  0  0  0  0  0  0  0
  -17.0240  -26.5790  -11.4980 N   0  0  0  0  0  0  0  0  0  0  0  0
  -15.7110  -26.2850  -11.6340 C   0  0  0  0  0  0  0  0  0  0  0  0
  -14.8380  -26.5430  -12.6820 C   0  0  0  0  0  0  0  0  0  0  0  0
  -13.5150  -26.1540  -12.5740 C   0  0  0  0  0  0  0  0  0  0  0  0
  -13.0770  -25.5110  -11.4210 C   0  0  0  0  0  0  0  0  0  0  0  0
  -13.9570  -25.2500  -10.3690 C   0  0  0  0  0  0  0  0  0  0  0  0
  -15.2870  -25.6460  -10.4960 C   0  0  0  0  0  0  0  0  0  0  0  0
  -16.3070  -24.9730   -8.3490 C   0  0  0  0  0  0  0  0  0  0  0  0
  -16.0270  -25.9560   -7.2430 C   0  0  0  0  0  0  0  0  0  0  0  0
  -14.7800  -26.5560   -7.1810 C   0  0  0  0  0  0  0  0  0  0  0  0
  -14.4300  -27.3960   -6.1150 C   0  0  0  0  0  0  0  0  0  0  0  0
  -15.3190  -27.6240   -5.0930 C   0  0  0  0  0  0  0  0  0  0  0  0
  -16.5590  -27.0230   -5.1280 C   0  0  0  0  0  0  0  0  0  0  0  0
  -16.9030  -26.2010   -6.1920 C   0  0  0  0  0  0  0  0  0  0  0  0
  1 18  1  0  0  0  0
  2  3  1  0  0  0  0
  2  1  1  0  0  0  0
  3 10  1  0  0  0  0
  4  3  1  0  0  0  0
  5  4  1  0  0  0  0
  5  6  1  0  0  0  0
  6  7  1  0  0  0  0
  6  8  1  0  0  0  0
  6  9  1  0  0  0  0
 10  9  1  0  0  0  0
 11  2  2  0  0  0  0
 12 11  2  0  0  0  0
 12 17  1  0  0  0  0
 13 14  2  0  0  0  0
 13 12  1  0  0  0  0
 14 15  1  0  0  0  0
 15 16  1  0  0  0  0
 17 16  2  0  0  0  0
 17  1  1  0  0  0  0
 18 19  1  0  0  0  0
 19 20  2  0  0  0  0
 19 24  1  0  0  0  0
 20 21  1  0  0  0  0
 21 22  2  0  0  0  0
 23 22  1  0  0  0  0
 24 23  2  0  0  0  0
M  END
>  <minimizedAffinity>
-8.24117661

$$$$

 OpenBabel12271914433D

 24 27  0  0  0  0  0  0  0  0999 V2000
  -17.9100  -25.6040   -8.3740 N   0  0  0  0  0  0  0  0  0  0  0  0
  -17.7170  -25.9950   -9.6720 C   0  0  0  0  0  0  0  0  0  0  0  0
  -16.5570  -25.9970  -10.4310 N   0  0  0  0  0  0  0  0  0  0  0  0
  -16.6500  -26.5900  -11.7820 C   0  0  0  0  0  0  0  0  0  0  0  0
  -15.4330  -27.4980  -12.0690 C   0  0  0  0  0  0  0  0  0  0  0  0
  -14.1460  -26.8300  -11.7240 N   0  0  0  0  0  0  0  0  0  0  0  0
  -13.4700  -26.9340  -12.4940 H   0  0  0  0  0  0  0  0  0  0  0  0
  -13.7780  -27.2990  -10.8840 H   0  0  0  0  0  0  0  0  0  0  0  0
  -14.3500  -25.3910  -11.3630 C   0  0  0  0  0  0  0  0  0  0  0  0
  -15.2990  -25.3420  -10.1260 C   0  0  0  0  0  0  0  0  0  0  0  0
  -18.8620  -26.4200  -10.1630 N   0  0  0  0  0  0  0  0  0  0  0  0
  -19.8200  -26.3100   -9.2150 C   0  0  0  0  0  0  0  0  0  0  0  0
  -21.1720  -26.6270   -9.2640 C   0  0  0  0  0  0  0  0  0  0  0  0
  -21.9620  -26.4020   -8.1520 C   0  0  0  0  0  0  0  0  0  0  0  0
  -21.3960  -25.8650   -7.0010 C   0  0  0  0  0  0  0  0  0  0  0  0
  -20.0360  -25.5500   -6.9520 C   0  0  0  0  0  0  0  0  0  0  0  0
  -19.2540  -25.7850   -8.0810 C   0  0  0  0  0  0  0  0  0  0  0  0
  -17.0090  -25.0000   -7.4140 C   0  0  0  0  0  0  0  0  0  0  0  0
  -16.2700  -25.9660   -6.5270 C   0  0  0  0  0  0  0  0  0  0  0  0
  -16.9220  -26.4980   -5.4260 C   0  0  0  0  0  0  0  0  0  0  0  0
  -16.3190  -27.4800   -4.6280 C   0  0  0  0  0  0  0  0  0  0  0  0
  -15.0670  -27.9510   -4.9400 C   0  0  0  0  0  0  0  0  0  0  0  0
  -14.4080  -27.4460   -6.0400 C   0  0  0  0  0  0  0  0  0  0  0  0
  -15.0060  -26.4660   -6.8180 C   0  0  0  0  0  0  0  0  0  0  0  0
  1 17  1  0  0  0  0
  1 18  1  0  0  0  0
  2  1  1  0  0  0  0
  3 10  1  0  0  0  0
  3  2  1  0  0  0  0
  4  3  1  0  0  0  0
  5  4  1  0  0  0  0
  5  6  1  0  0  0  0
  6  9  1  0  0  0  0
  6  8  1  0  0  0  0
  7  6  1  0  0  0  0
  9 10  1  0  0  0  0
 11  2  2  0  0  0  0
 11 12  2  0  0  0  0
 12 17  1  0  0  0  0
 13 12  1  0  0  0  0
 13 14  2  0  0  0  0
 14 15  1  0  0  0  0
 15 16  1  0  0  0  0
 17 16  2  0  0  0  0
 18 19  1  0  0  0  0
 19 20  1  0  0  0  0
 20 21  2  0  0  0  0
 22 21  1  0  0  0  0
 23 22  2  0  0  0  0
 24 19  2  0  0  0  0
 24 23  1  0  0  0  0
M  END
>  <minimizedAffinity>
-7.94978237

$$$$

 OpenBabel12271914433D

 24 27  0  0  0  0  0  0  0  0999 V2000
  -18.5570  -27.7910   -9.1720 N   0  0  0  0  0  0  0  0  0  0  0  0
  -19.1980  -27.8920  -10.3780 C   0  0  0  0  0  0  0  0  0  0  0  0
  -18.8150  -28.5620  -11.5290 N   0  0  0  0  0  0  0  0  0  0  0  0
  -19.7870  -28.5750  -12.6430 C   0  0  0  0  0  0  0  0  0  0  0  0
  -19.8840  -29.9840  -13.2710 C   0  0  0  0  0  0  0  0  0  0  0  0
  -18.5390  -30.5600  -13.5570 N   0  0  0  0  0  0  0  0  0  0  0  0
  -18.5070  -30.9440  -14.5120 H   0  0  0  0  0  0  0  0  0  0  0  0
  -18.3870  -31.3220  -12.8800 H   0  0  0  0  0  0  0  0  0  0  0  0
  -17.4490  -29.5580  -13.3310 C   0  0  0  0  0  0  0  0  0  0  0  0
  -17.5100  -29.1170  -11.8370 C   0  0  0  0  0  0  0  0  0  0  0  0
  -20.3330  -27.2270  -10.3130 N   0  0  0  0  0  0  0  0  0  0  0  0
  -20.4550  -26.6760   -9.0840 C   0  0  0  0  0  0  0  0  0  0  0  0
  -21.4690  -25.8910   -8.5500 C   0  0  0  0  0  0  0  0  0  0  0  0
  -21.3530  -25.4230   -7.2540 C   0  0  0  0  0  0  0  0  0  0  0  0
  -20.2280  -25.7440   -6.5030 C   0  0  0  0  0  0  0  0  0  0  0  0
  -19.2110  -26.5360   -7.0400 C   0  0  0  0  0  0  0  0  0  0  0  0
  -19.3450  -27.0010   -8.3470 C   0  0  0  0  0  0  0  0  0  0  0  0
  -17.2600  -28.2680   -8.7360 C   0  0  0  0  0  0  0  0  0  0  0  0
  -16.2360  -27.1970   -8.4690 C   0  0  0  0  0  0  0  0  0  0  0  0
  -15.5110  -27.2420   -7.2890 C   0  0  0  0  0  0  0  0  0  0  0  0
  -14.4740  -26.3340   -7.0370 C   0  0  0  0  0  0  0  0  0  0  0  0
  -14.1420  -25.3860   -7.9750 C   0  0  0  0  0  0  0  0  0  0  0  0
  -14.8400  -25.3350   -9.1620 C   0  0  0  0  0  0  0  0  0  0  0  0
  -15.8730  -26.2310   -9.4000 C   0  0  0  0  0  0  0  0  0  0  0  0
  1 18  1  0  0  0  0
  1 17  1  0  0  0  0
  2 11  2  0  0  0  0
  2  1  1  0  0  0  0
  3  2  1  0  0  0  0
  4  3  1  0  0  0  0
  5  4  1  0  0  0  0
  6  9  1  0  0  0  0
  6  5  1  0  0  0  0
  6  8  1  0  0  0  0
  7  6  1  0  0  0  0
  9 10  1  0  0  0  0
 10  3  1  0  0  0  0
 11 12  2  0  0  0  0
 12 13  1  0  0  0  0
 12 17  1  0  0  0  0
 13 14  2  0  0  0  0
 14 15  1  0  0  0  0
 16 15  1  0  0  0  0
 17 16  2  0  0  0  0
 18 19  1  0  0  0  0
 19 20  2  0  0  0  0
 20 21  1  0  0  0  0
 22 21  2  0  0  0  0
 23 22  1  0  0  0  0
 24 23  2  0  0  0  0
 24 19  1  0  0  0  0
M  END
>  <minimizedAffinity>
-7.88719893

$$$$

 OpenBabel12271914433D

 24 27  0  0  0  0  0  0  0  0999 V2000
  -16.7950  -26.1240   -9.8300 N   0  0  0  0  0  0  0  0  0  0  0  0
  -18.0410  -26.4700   -9.3820 C   0  0  0  0  0  0  0  0  0  0  0  0
  -19.2560  -26.4570  -10.0490 N   0  0  0  0  0  0  0  0  0  0  0  0
  -20.4200  -27.0010   -9.3170 C   0  0  0  0  0  0  0  0  0  0  0  0
  -21.2690  -27.9100  -10.2330 C   0  0  0  0  0  0  0  0  0  0  0  0
  -21.5530  -27.2670  -11.5480 N   0  0  0  0  0  0  0  0  0  0  0  0
  -22.5530  -27.3500  -11.7810 H   0  0  0  0  0  0  0  0  0  0  0  0
  -20.9970  -27.7700  -12.2560 H   0  0  0  0  0  0  0  0  0  0  0  0
  -21.0990  -25.8400  -11.5750 C   0  0  0  0  0  0  0  0  0  0  0  0
  -19.5610  -25.8250  -11.3190 C   0  0  0  0  0  0  0  0  0  0  0  0
  -17.9470  -26.8670   -8.1300 N   0  0  0  0  0  0  0  0  0  0  0  0
  -16.6570  -26.7810   -7.7320 C   0  0  0  0  0  0  0  0  0  0  0  0
  -16.0740  -27.0830   -6.5080 C   0  0  0  0  0  0  0  0  0  0  0  0
  -14.7150  -26.8890   -6.3390 C   0  0  0  0  0  0  0  0  0  0  0  0
  -13.9510  -26.3990   -7.3930 C   0  0  0  0  0  0  0  0  0  0  0  0
  -14.5390  -26.1000   -8.6240 C   0  0  0  0  0  0  0  0  0  0  0  0
  -15.9090  -26.3020   -8.7780 C   0  0  0  0  0  0  0  0  0  0  0  0
  -16.3550  -25.5630  -11.0920 C   0  0  0  0  0  0  0  0  0  0  0  0
  -15.7200  -26.5400  -12.0460 C   0  0  0  0  0  0  0  0  0  0  0  0
  -16.5220  -27.4780  -12.6750 C   0  0  0  0  0  0  0  0  0  0  0  0
  -16.0020  -28.3420  -13.6490 C   0  0  0  0  0  0  0  0  0  0  0  0
  -14.6810  -28.2560  -14.0160 C   0  0  0  0  0  0  0  0  0  0  0  0
  -13.8710  -27.3180  -13.4140 C   0  0  0  0  0  0  0  0  0  0  0  0
  -14.3890  -26.4740  -12.4410 C   0  0  0  0  0  0  0  0  0  0  0  0
  1  2  1  0  0  0  0
  1 17  1  0  0  0  0
  2 11  2  0  0  0  0
  3  2  1  0  0  0  0
  3  4  1  0  0  0  0
  5  4  1  0  0  0  0
  6  5  1  0  0  0  0
  7  6  1  0  0  0  0
  8  6  1  0  0  0  0
  9  6  1  0  0  0  0
  9 10  1  0  0  0  0
 10  3  1  0  0  0  0
 11 12  2  0  0  0  0
 12 13  1  0  0  0  0
 13 14  2  0  0  0  0
 15 14  1  0  0  0  0
 16 15  1  0  0  0  0
 17 16  2  0  0  0  0
 17 12  1  0  0  0  0
 18  1  1  0  0  0  0
 19 18  1  0  0  0  0
 20 19  2  0  0  0  0
 21 20  1  0  0  0  0
 22 21  2  0  0  0  0
 22 23  1  0  0  0  0
 23 24  2  0  0  0  0
 24 19  1  0  0  0  0
M  END
>  <minimizedAffinity>
-7.87717533

$$$$

 OpenBabel12271914433D

 24 27  0  0  0  0  0  0  0  0999 V2000
  -16.7290  -27.1350  -11.4910 N   0  0  0  0  0  0  0  0  0  0  0  0
  -16.4070  -27.8530  -12.6120 C   0  0  0  0  0  0  0  0  0  0  0  0
  -15.3700  -27.6680  -13.5120 N   0  0  0  0  0  0  0  0  0  0  0  0
  -15.2220  -28.6890  -14.5710 C   0  0  0  0  0  0  0  0  0  0  0  0
  -13.7380  -29.0810  -14.7530 C   0  0  0  0  0  0  0  0  0  0  0  0
  -12.8550  -27.8840  -14.8560 N   0  0  0  0  0  0  0  0  0  0  0  0
  -12.2110  -27.9800  -15.6540 H   0  0  0  0  0  0  0  0  0  0  0  0
  -12.3080  -27.8360  -13.9830 H   0  0  0  0  0  0  0  0  0  0  0  0
  -13.6480  -26.6170  -14.9400 C   0  0  0  0  0  0  0  0  0  0  0  0
  -14.5080  -26.5080  -13.6430 C   0  0  0  0  0  0  0  0  0  0  0  0
  -17.2690  -28.8390  -12.7450 N   0  0  0  0  0  0  0  0  0  0  0  0
  -18.1670  -28.7860  -11.7360 C   0  0  0  0  0  0  0  0  0  0  0  0
  -19.2540  -29.6050  -11.4580 C   0  0  0  0  0  0  0  0  0  0  0  0
  -20.0460  -29.3290  -10.3590 C   0  0  0  0  0  0  0  0  0  0  0  0
  -19.7470  -28.2400   -9.5480 C   0  0  0  0  0  0  0  0  0  0  0  0
  -18.6510  -27.4200   -9.8270 C   0  0  0  0  0  0  0  0  0  0  0  0
  -17.8620  -27.7140  -10.9360 C   0  0  0  0  0  0  0  0  0  0  0  0
  -16.1580  -25.9240  -10.9340 C   0  0  0  0  0  0  0  0  0  0  0  0
  -15.3940  -26.1040   -9.6500 C   0  0  0  0  0  0  0  0  0  0  0  0
  -15.7540  -25.3500   -8.5450 C   0  0  0  0  0  0  0  0  0  0  0  0
  -15.1480  -25.5520   -7.2980 C   0  0  0  0  0  0  0  0  0  0  0  0
  -14.1900  -26.5250   -7.1430 C   0  0  0  0  0  0  0  0  0  0  0  0
  -13.8290  -27.2960   -8.2270 C   0  0  0  0  0  0  0  0  0  0  0  0
  -14.4250  -27.0830   -9.4620 C   0  0  0  0  0  0  0  0  0  0  0  0
  1 17  1  0  0  0  0
  1 18  1  0  0  0  0
  2  1  1  0  0  0  0
  3  2  1  0  0  0  0
  4  3  1  0  0  0  0
  5  4  1  0  0  0  0
  6  5  1  0  0  0  0
  6  8  1  0  0  0  0
  7  6  1  0  0  0  0
  9  6  1  0  0  0  0
  9 10  1  0  0  0  0
 10  3  1  0  0  0  0
 11  2  2  0  0  0  0
 11 12  2  0  0  0  0
 12 13  1  0  0  0  0
 12 17  1  0  0  0  0
 13 14  2  0  0  0  0
 14 15  1  0  0  0  0
 16 15  1  0  0  0  0
 17 16  2  0  0  0  0
 18 19  1  0  0  0  0
 19 24  2  0  0  0  0
 19 20  1  0  0  0  0
 20 21  2  0  0  0  0
 21 22  1  0  0  0  0
 23 22  2  0  0  0  0
 24 23  1  0  0  0  0
M  END
>  <minimizedAffinity>
-7.74336576

$$$$

 OpenBabel12271914433D

 24 27  0  0  0  0  0  0  0  0999 V2000
  -17.7250  -27.5080   -8.8750 N   0  0  0  0  0  0  0  0  0  0  0  0
  -18.8700  -27.1680   -9.5440 C   0  0  0  0  0  0  0  0  0  0  0  0
  -19.2200  -27.3890  -10.8670 N   0  0  0  0  0  0  0  0  0  0  0  0
  -20.5880  -26.9960  -11.2650 C   0  0  0  0  0  0  0  0  0  0  0  0
  -21.2400  -28.0880  -12.1430 C   0  0  0  0  0  0  0  0  0  0  0  0
  -20.3330  -28.5360  -13.2380 N   0  0  0  0  0  0  0  0  0  0  0  0
  -20.8360  -28.5550  -14.1370 H   0  0  0  0  0  0  0  0  0  0  0  0
  -20.0230  -29.4910  -13.0020 H   0  0  0  0  0  0  0  0  0  0  0  0
  -19.1000  -27.6890  -13.3170 C   0  0  0  0  0  0  0  0  0  0  0  0
  -18.3540  -27.8080  -11.9530 C   0  0  0  0  0  0  0  0  0  0  0  0
  -19.6850  -26.5610   -8.7080 N   0  0  0  0  0  0  0  0  0  0  0  0
  -19.0980  -26.4810   -7.4920 C   0  0  0  0  0  0  0  0  0  0  0  0
  -19.5630  -25.9300   -6.3050 C   0  0  0  0  0  0  0  0  0  0  0  0
  -18.7540  -25.9550   -5.1840 C   0  0  0  0  0  0  0  0  0  0  0  0
  -17.4910  -26.5310   -5.2570 C   0  0  0  0  0  0  0  0  0  0  0  0
  -17.0270  -27.0890   -6.4500 C   0  0  0  0  0  0  0  0  0  0  0  0
  -17.8550  -27.0570   -7.5700 C   0  0  0  0  0  0  0  0  0  0  0  0
  -16.4940  -28.1200   -9.3370 C   0  0  0  0  0  0  0  0  0  0  0  0
  -15.3220  -27.1860   -9.4740 C   0  0  0  0  0  0  0  0  0  0  0  0
  -14.2180  -27.3710   -8.6580 C   0  0  0  0  0  0  0  0  0  0  0  0
  -13.0600  -26.5990   -8.8150 C   0  0  0  0  0  0  0  0  0  0  0  0
  -12.9900  -25.6490   -9.8050 C   0  0  0  0  0  0  0  0  0  0  0  0
  -14.0720  -25.4600  -10.6390 C   0  0  0  0  0  0  0  0  0  0  0  0
  -15.2200  -26.2210  -10.4700 C   0  0  0  0  0  0  0  0  0  0  0  0
  1 17  1  0  0  0  0
  2  1  1  0  0  0  0
  2 11  2  0  0  0  0
  3  2  1  0  0  0  0
  4  3  1  0  0  0  0
  5  4  1  0  0  0  0
  6  8  1  0  0  0  0
  6  5  1  0  0  0  0
  7  6  1  0  0  0  0
  9  6  1  0  0  0  0
  9 10  1  0  0  0  0
 10  3  1  0  0  0  0
 11 12  2  0  0  0  0
 12 13  1  0  0  0  0
 13 14  2  0  0  0  0
 15 14  1  0  0  0  0
 16 15  1  0  0  0  0
 17 12  1  0  0  0  0
 17 16  2  0  0  0  0
 18  1  1  0  0  0  0
 19 18  1  0  0  0  0
 19 20  2  0  0  0  0
 21 20  1  0  0  0  0
 22 21  2  0  0  0  0
 23 24  2  0  0  0  0
 23 22  1  0  0  0  0
 24 19  1  0  0  0  0
M  END
>  <minimizedAffinity>
-7.72175026

$$$$

 OpenBabel12271914433D

 24 27  0  0  0  0  0  0  0  0999 V2000
  -18.6910  -27.1790   -8.4690 N   0  0  0  0  0  0  0  0  0  0  0  0
  -19.6780  -26.4810   -7.8270 C   0  0  0  0  0  0  0  0  0  0  0  0
  -20.9630  -26.1760   -8.2500 N   0  0  0  0  0  0  0  0  0  0  0  0
  -21.8380  -25.4950   -7.2730 C   0  0  0  0  0  0  0  0  0  0  0  0
  -23.2530  -26.1150   -7.2770 C   0  0  0  0  0  0  0  0  0  0  0  0
  -23.7920  -26.2640   -8.6590 N   0  0  0  0  0  0  0  0  0  0  0  0
  -24.7540  -25.9020   -8.7110 H   0  0  0  0  0  0  0  0  0  0  0  0
  -23.7970  -27.2730   -8.8730 H   0  0  0  0  0  0  0  0  0  0  0  0
  -22.9030  -25.6110   -9.6720 C   0  0  0  0  0  0  0  0  0  0  0  0
  -21.5050  -26.2970   -9.5900 C   0  0  0  0  0  0  0  0  0  0  0  0
  -19.2340  -26.1040   -6.6470 N   0  0  0  0  0  0  0  0  0  0  0  0
  -17.9610  -26.5330   -6.4930 C   0  0  0  0  0  0  0  0  0  0  0  0
  -17.0840  -26.3770   -5.4280 C   0  0  0  0  0  0  0  0  0  0  0  0
  -15.8060  -26.8980   -5.5190 C   0  0  0  0  0  0  0  0  0  0  0  0
  -15.4170  -27.5720   -6.6720 C   0  0  0  0  0  0  0  0  0  0  0  0
  -16.3010  -27.7310   -7.7410 C   0  0  0  0  0  0  0  0  0  0  0  0
  -17.5850  -27.2010   -7.6310 C   0  0  0  0  0  0  0  0  0  0  0  0
  -18.6310  -27.7450   -9.8020 C   0  0  0  0  0  0  0  0  0  0  0  0
  -17.8000  -26.9740  -10.7930 C   0  0  0  0  0  0  0  0  0  0  0  0
  -16.6840  -27.5810  -11.3460 C   0  0  0  0  0  0  0  0  0  0  0  0
  -15.9360  -26.9500  -12.3490 C   0  0  0  0  0  0  0  0  0  0  0  0
  -16.3130  -25.7160  -12.8210 C   0  0  0  0  0  0  0  0  0  0  0  0
  -17.4290  -25.1020  -12.2950 C   0  0  0  0  0  0  0  0  0  0  0  0
  -18.1590  -25.7280  -11.2930 C   0  0  0  0  0  0  0  0  0  0  0  0
  1  2  1  0  0  0  0
  1 17  1  0  0  0  0
  2 11  2  0  0  0  0
  3  2  1  0  0  0  0
  3  4  1  0  0  0  0
  5  4  1  0  0  0  0
  6  5  1  0  0  0  0
  7  6  1  0  0  0  0
  8  6  1  0  0  0  0
  9 10  1  0  0  0  0
  9  6  1  0  0  0  0
 10  3  1  0  0  0  0
 11 12  2  0  0  0  0
 12 13  1  0  0  0  0
 14 13  2  0  0  0  0
 15 14  1  0  0  0  0
 16 17  2  0  0  0  0
 16 15  1  0  0  0  0
 17 12  1  0  0  0  0
 18  1  1  0  0  0  0
 19 18  1  0  0  0  0
 20 19  2  0  0  0  0
 21 20  1  0  0  0  0
 22 21  2  0  0  0  0
 22 23  1  0  0  0  0
 23 24  2  0  0  0  0
 24 19  1  0  0  0  0
M  END
>  <minimizedAffinity>
-7.62767267

$$$$

 OpenBabel12271914433D

 24 27  0  0  0  0  0  0  0  0999 V2000
  -16.7490  -27.6660   -9.4240 N   0  0  0  0  0  0  0  0  0  0  0  0
  -16.6040  -27.6060  -10.7840 C   0  0  0  0  0  0  0  0  0  0  0  0
  -17.4490  -28.0600  -11.7840 N   0  0  0  0  0  0  0  0  0  0  0  0
  -17.0600  -27.7450  -13.1750 C   0  0  0  0  0  0  0  0  0  0  0  0
  -18.2810  -27.2650  -13.9920 C   0  0  0  0  0  0  0  0  0  0  0  0
  -19.4550  -28.1670  -13.8200 N   0  0  0  0  0  0  0  0  0  0  0  0
  -19.8660  -28.4000  -14.7350 H   0  0  0  0  0  0  0  0  0  0  0  0
  -20.1490  -27.6540  -13.2560 H   0  0  0  0  0  0  0  0  0  0  0  0
  -19.0960  -29.4000  -13.0480 C   0  0  0  0  0  0  0  0  0  0  0  0
  -18.5860  -28.9510  -11.6450 C   0  0  0  0  0  0  0  0  0  0  0  0
  -15.4690  -27.0000  -11.0630 N   0  0  0  0  0  0  0  0  0  0  0  0
  -14.8490  -26.6620   -9.9100 C   0  0  0  0  0  0  0  0  0  0  0  0
  -13.6380  -26.0170   -9.6970 C   0  0  0  0  0  0  0  0  0  0  0  0
  -13.2030  -25.8000   -8.4030 C   0  0  0  0  0  0  0  0  0  0  0  0
  -13.9820  -26.2280   -7.3330 C   0  0  0  0  0  0  0  0  0  0  0  0
  -15.2010  -26.8740   -7.5480 C   0  0  0  0  0  0  0  0  0  0  0  0
  -15.6250  -27.0820   -8.8590 C   0  0  0  0  0  0  0  0  0  0  0  0
  -17.7670  -28.2840   -8.5980 C   0  0  0  0  0  0  0  0  0  0  0  0
  -18.8420  -27.3560   -8.0970 C   0  0  0  0  0  0  0  0  0  0  0  0
  -18.6830  -26.7530   -6.8600 C   0  0  0  0  0  0  0  0  0  0  0  0
  -19.5990  -25.8020   -6.3910 C   0  0  0  0  0  0  0  0  0  0  0  0
  -20.6690  -25.4310   -7.1690 C   0  0  0  0  0  0  0  0  0  0  0  0
  -20.8360  -26.0070   -8.4100 C   0  0  0  0  0  0  0  0  0  0  0  0
  -19.9320  -26.9570   -8.8620 C   0  0  0  0  0  0  0  0  0  0  0  0
  1 17  1  0  0  0  0
  1 18  1  0  0  0  0
  2  1  1  0  0  0  0
  3 10  1  0  0  0  0
  3  2  1  0  0  0  0
  4  3  1  0  0  0  0
  5  6  1  0  0  0  0
  5  4  1  0  0  0  0
  6  8  1  0  0  0  0
  6  9  1  0  0  0  0
  7  6  1  0  0  0  0
  9 10  1  0  0  0  0
 11  2  2  0  0  0  0
 11 12  2  0  0  0  0
 12 13  1  0  0  0  0
 12 17  1  0  0  0  0
 13 14  2  0  0  0  0
 14 15  1  0  0  0  0
 16 15  1  0  0  0  0
 17 16  2  0  0  0  0
 18 19  1  0  0  0  0
 19 20  2  0  0  0  0
 20 21  1  0  0  0  0
 22 21  2  0  0  0  0
 23 22  1  0  0  0  0
 24 23  2  0  0  0  0
 24 19  1  0  0  0  0
M  END
>  <minimizedAffinity>
-7.60176563

$$$$

 OpenBabel12271914433D

 24 27  0  0  0  0  0  0  0  0999 V2000
  -17.5780  -27.3110   -9.2350 N   0  0  0  0  0  0  0  0  0  0  0  0
  -16.9430  -27.0750  -10.4250 C   0  0  0  0  0  0  0  0  0  0  0  0
  -17.4400  -27.1310  -11.7180 N   0  0  0  0  0  0  0  0  0  0  0  0
  -16.5250  -26.7090  -12.7990 C   0  0  0  0  0  0  0  0  0  0  0  0
  -17.2570  -25.8080  -13.8180 C   0  0  0  0  0  0  0  0  0  0  0  0
  -18.5610  -26.3930  -14.2430 N   0  0  0  0  0  0  0  0  0  0  0  0
  -18.6510  -26.3640  -15.2690 H   0  0  0  0  0  0  0  0  0  0  0  0
  -19.3030  -25.8150  -13.8210 H   0  0  0  0  0  0  0  0  0  0  0  0
  -18.7410  -27.7830  -13.7160 C   0  0  0  0  0  0  0  0  0  0  0  0
  -18.6960  -27.7090  -12.1590 C   0  0  0  0  0  0  0  0  0  0  0  0
  -15.6920  -26.7450  -10.1820 N   0  0  0  0  0  0  0  0  0  0  0  0
  -15.4790  -26.7660   -8.8460 C   0  0  0  0  0  0  0  0  0  0  0  0
  -14.3280  -26.4960   -8.1180 C   0  0  0  0  0  0  0  0  0  0  0  0
  -14.3560  -26.6070   -6.7400 C   0  0  0  0  0  0  0  0  0  0  0  0
  -15.5330  -26.9850   -6.1020 C   0  0  0  0  0  0  0  0  0  0  0  0
  -16.6900  -27.2530   -6.8360 C   0  0  0  0  0  0  0  0  0  0  0  0
  -16.6440  -27.1340   -8.2230 C   0  0  0  0  0  0  0  0  0  0  0  0
  -18.9210  -27.7700   -8.9420 C   0  0  0  0  0  0  0  0  0  0  0  0
  -19.9200  -26.6850   -8.6390 C   0  0  0  0  0  0  0  0  0  0  0  0
  -20.8320  -26.3220   -9.6170 C   0  0  0  0  0  0  0  0  0  0  0  0
  -21.8490  -25.3950   -9.3540 C   0  0  0  0  0  0  0  0  0  0  0  0
  -21.9740  -24.8410   -8.1030 C   0  0  0  0  0  0  0  0  0  0  0  0
  -21.0880  -25.2010   -7.1120 C   0  0  0  0  0  0  0  0  0  0  0  0
  -20.0750  -26.1110   -7.3820 C   0  0  0  0  0  0  0  0  0  0  0  0
  1 18  1  0  0  0  0
  1 17  1  0  0  0  0
  2 11  2  0  0  0  0
  2  1  1  0  0  0  0
  3  2  1  0  0  0  0
  4  3  1  0  0  0  0
  5  4  1  0  0  0  0
  6  8  1  0  0  0  0
  6  5  1  0  0  0  0
  6  9  1  0  0  0  0
  7  6  1  0  0  0  0
  9 10  1  0  0  0  0
 10  3  1  0  0  0  0
 11 12  2  0  0  0  0
 12 17  1  0  0  0  0
 12 13  1  0  0  0  0
 13 14  2  0  0  0  0
 14 15  1  0  0  0  0
 16 15  1  0  0  0  0
 17 16  2  0  0  0  0
 18 19  1  0  0  0  0
 19 24  2  0  0  0  0
 20 21  2  0  0  0  0
 20 19  1  0  0  0  0
 21 22  1  0  0  0  0
 22 23  2  0  0  0  0
 24 23  1  0  0  0  0
M  END
>  <minimizedAffinity>
-7.58503485

$$$$
