
 OpenBabel12271914483D

 37 41  0  0  1  0  0  0  0  0999 V2000
  -15.4080  -26.4080  -10.7520 C   0  0  2  0  0  0  0  0  0  0  0  0
  -15.7600  -27.6320  -10.0590 O   0  0  0  0  0  0  0  0  0  0  0  0
  -16.9790  -28.1890   -9.9630 C   0  0  0  0  0  0  0  0  0  0  0  0
  -17.1100  -29.3440   -9.5370 O   0  0  0  0  0  0  0  0  0  0  0  0
  -18.1480  -27.4010  -10.3730 C   0  0  0  0  0  0  0  0  0  0  0  0
  -17.9870  -26.1850  -10.9500 C   0  0  0  0  0  0  0  0  0  0  0  0
  -18.9480  -25.4430  -11.3780 O   0  0  0  0  0  0  0  0  0  0  0  0
  -16.6310  -25.5490  -11.1120 C   0  0  0  0  0  0  0  0  0  0  0  0
  -14.6220  -26.8640  -11.9850 C   0  0  0  0  0  0  0  0  0  0  0  0
  -15.5110  -27.3890  -13.1380 C   0  0  0  0  0  0  0  0  0  0  0  0
  -14.8490  -26.9660  -14.4540 C   0  0  0  0  0  0  0  0  0  0  0  0
  -13.5470  -26.2760  -14.0820 C   0  0  0  0  0  0  0  0  0  0  0  0
  -13.7880  -25.7580  -12.6690 C   0  0  0  0  0  0  0  0  0  0  0  0
  -19.5060  -28.0080  -10.1560 C   0  0  0  0  0  0  0  0  0  0  0  0
  -20.0090  -28.7250  -11.3800 C   0  0  0  0  0  0  0  0  0  0  0  0
  -21.3140  -28.8630  -11.7040 N   0  0  0  0  0  0  0  0  0  0  0  0
  -21.3360  -29.5350  -12.8260 C   0  0  0  0  0  0  0  0  0  0  0  0
  -22.3910  -29.9640  -13.5980 N   0  0  0  0  0  0  0  0  0  0  0  0
  -22.1190  -30.6200  -14.6720 C   0  0  0  0  0  0  0  0  0  0  0  0
  -23.2330  -31.0890  -15.5590 C   0  0  0  0  0  0  0  0  0  0  0  0
  -20.7410  -30.9560  -15.1090 C   0  0  0  0  0  0  0  0  0  0  0  0
  -19.7360  -30.5140  -14.3430 C   0  0  0  0  0  0  0  0  0  0  0  0
  -18.3070  -30.7700  -14.6990 C   0  0  0  0  0  0  0  0  0  0  0  0
  -20.0330  -29.7870  -13.1950 N   0  0  0  0  0  0  0  0  0  0  0  0
  -19.1970  -29.2110  -12.3200 N   0  0  0  0  0  0  0  0  0  0  0  0
  -14.5560  -25.7200   -9.6800 C   0  0  0  0  0  0  0  0  0  0  0  0
  -15.1810  -24.9420   -8.5230 C   0  0  0  0  0  0  0  0  0  0  0  0
  -15.4860  -27.2670   -5.5530 C   0  0  0  0  0  0  0  0  0  0  0  0
  -16.7720  -27.0890   -5.1740 N   0  0  0  0  0  0  0  0  0  0  0  0
  -17.5490  -26.2640   -5.9080 C   0  0  0  0  0  0  0  0  0  0  0  0
  -17.0600  -25.5760   -7.0000 C   0  0  0  0  0  0  0  0  0  0  0  0
  -15.7370  -25.7390   -7.3820 C   0  0  0  0  0  0  0  0  0  0  0  0
  -14.9430  -26.6110   -6.6470 C   0  0  0  0  0  0  0  0  0  0  0  0
  -15.3810  -28.4430   -3.3760 C   0  0  0  0  0  0  0  0  0  0  0  0
  -14.6360  -28.1600   -4.6740 C   0  0  0  0  0  0  0  0  0  0  0  0
  -18.9760  -26.0390   -5.4680 C   0  0  0  0  0  0  0  0  0  0  0  0
  -19.8530  -25.8720   -6.7060 C   0  0  0  0  0  0  0  0  0  0  0  0
  1  2  1  0  0  0  0
  1 26  1  1  0  0  0
  2  3  1  0  0  0  0
  3  4  2  0  0  0  0
  5 14  1  0  0  0  0
  5  3  1  0  0  0  0
  6  5  2  0  0  0  0
  7  6  1  0  0  0  0
  8  6  1  0  0  0  0
  8  1  1  0  0  0  0
  9  1  1  0  0  0  0
 10  9  1  0  0  0  0
 11 12  1  0  0  0  0
 11 10  1  0  0  0  0
 12 13  1  0  0  0  0
 13  9  1  0  0  0  0
 15 14  1  0  0  0  0
 16 15  2  0  0  0  0
 17 16  2  0  0  0  0
 18 17  2  0  0  0  0
 19 18  2  0  0  0  0
 20 19  1  0  0  0  0
 21 19  1  0  0  0  0
 21 22  2  0  0  0  0
 22 24  1  0  0  0  0
 23 22  1  0  0  0  0
 24 17  1  0  0  0  0
 24 25  1  0  0  0  0
 25 15  2  0  0  0  0
 26 27  1  0  0  0  0
 27 32  1  0  0  0  0
 28 29  2  0  0  0  0
 28 35  1  0  0  0  0
 30 36  1  0  0  0  0
 30 29  2  0  0  0  0
 31 30  1  0  0  0  0
 32 31  2  0  0  0  0
 32 33  1  0  0  0  0
 33 28  1  0  0  0  0
 35 34  1  0  0  0  0
 37 36  1  0  0  0  0
M  END
>  <minimizedAffinity>
-9.58235931

$$$$

 OpenBabel12271914483D

 37 41  0  0  1  0  0  0  0  0999 V2000
  -16.1450  -26.4570  -10.1370 C   0  0  2  0  0  0  0  0  0  0  0  0
  -17.0510  -25.7000  -10.9770 O   0  0  0  0  0  0  0  0  0  0  0  0
  -17.0570  -25.6410  -12.3200 C   0  0  0  0  0  0  0  0  0  0  0  0
  -18.0150  -25.1390  -12.9220 O   0  0  0  0  0  0  0  0  0  0  0  0
  -15.9060  -26.1800  -13.0540 C   0  0  0  0  0  0  0  0  0  0  0  0
  -14.9180  -26.8330  -12.3940 C   0  0  0  0  0  0  0  0  0  0  0  0
  -13.8940  -27.3740  -12.9570 O   0  0  0  0  0  0  0  0  0  0  0  0
  -14.9020  -26.9560  -10.8940 C   0  0  0  0  0  0  0  0  0  0  0  0
  -16.9920  -27.6020   -9.5720 C   0  0  0  0  0  0  0  0  0  0  0  0
  -18.4380  -27.1910   -9.2050 C   0  0  0  0  0  0  0  0  0  0  0  0
  -19.3470  -28.3820   -9.5280 C   0  0  0  0  0  0  0  0  0  0  0  0
  -18.4380  -29.5050   -9.9990 C   0  0  0  0  0  0  0  0  0  0  0  0
  -17.2050  -28.7890  -10.5380 C   0  0  0  0  0  0  0  0  0  0  0  0
  -15.8890  -26.0040  -14.5460 C   0  0  0  0  0  0  0  0  0  0  0  0
  -16.1310  -27.3000  -15.2730 C   0  0  0  0  0  0  0  0  0  0  0  0
  -15.3540  -27.7760  -16.2710 N   0  0  0  0  0  0  0  0  0  0  0  0
  -15.8900  -28.9130  -16.6310 C   0  0  0  0  0  0  0  0  0  0  0  0
  -15.5200  -29.8150  -17.6030 N   0  0  0  0  0  0  0  0  0  0  0  0
  -16.2430  -30.8710  -17.7460 C   0  0  0  0  0  0  0  0  0  0  0  0
  -15.8680  -31.8940  -18.7760 C   0  0  0  0  0  0  0  0  0  0  0  0
  -17.4570  -31.1570  -16.9420 C   0  0  0  0  0  0  0  0  0  0  0  0
  -17.7830  -30.2670  -15.9970 C   0  0  0  0  0  0  0  0  0  0  0  0
  -18.9690  -30.4640  -15.1090 C   0  0  0  0  0  0  0  0  0  0  0  0
  -16.9880  -29.1390  -15.8300 N   0  0  0  0  0  0  0  0  0  0  0  0
  -17.0940  -28.1560  -14.9250 N   0  0  0  0  0  0  0  0  0  0  0  0
  -15.7630  -25.3880   -9.1080 C   0  0  0  0  0  0  0  0  0  0  0  0
  -14.8070  -25.6800   -7.9520 C   0  0  0  0  0  0  0  0  0  0  0  0
  -17.2140  -26.6180   -5.1870 C   0  0  0  0  0  0  0  0  0  0  0  0
  -16.5040  -27.5250   -4.4780 N   0  0  0  0  0  0  0  0  0  0  0  0
  -15.2370  -27.7900   -4.8610 C   0  0  0  0  0  0  0  0  0  0  0  0
  -14.6660  -27.1930   -5.9670 C   0  0  0  0  0  0  0  0  0  0  0  0
  -15.3960  -26.2770   -6.7100 C   0  0  0  0  0  0  0  0  0  0  0  0
  -16.6900  -25.9800   -6.3010 C   0  0  0  0  0  0  0  0  0  0  0  0
  -19.4810  -25.9930   -5.9670 C   0  0  0  0  0  0  0  0  0  0  0  0
  -18.6460  -26.3880   -4.7550 C   0  0  0  0  0  0  0  0  0  0  0  0
  -14.4540  -28.8250   -4.0890 C   0  0  0  0  0  0  0  0  0  0  0  0
  -14.7020  -28.6190   -2.5970 C   0  0  0  0  0  0  0  0  0  0  0  0
  1  9  1  0  0  0  0
  1 26  1  1  0  0  0
  2  1  1  0  0  0  0
  3  2  1  0  0  0  0
  4  3  2  0  0  0  0
  5  6  2  0  0  0  0
  5  3  1  0  0  0  0
  6  8  1  0  0  0  0
  7  6  1  0  0  0  0
  8  1  1  0  0  0  0
  9 10  1  0  0  0  0
 11 10  1  0  0  0  0
 12 11  1  0  0  0  0
 13 12  1  0  0  0  0
 13  9  1  0  0  0  0
 14  5  1  0  0  0  0
 15 25  2  0  0  0  0
 15 14  1  0  0  0  0
 16 15  2  0  0  0  0
 17 16  2  0  0  0  0
 17 24  1  0  0  0  0
 18 17  2  0  0  0  0
 19 18  2  0  0  0  0
 19 21  1  0  0  0  0
 20 19  1  0  0  0  0
 21 22  2  0  0  0  0
 22 24  1  0  0  0  0
 22 23  1  0  0  0  0
 24 25  1  0  0  0  0
 26 27  1  0  0  0  0
 27 32  1  0  0  0  0
 28 35  1  0  0  0  0
 28 29  2  0  0  0  0
 30 29  2  0  0  0  0
 30 36  1  0  0  0  0
 31 30  1  0  0  0  0
 32 33  1  0  0  0  0
 32 31  2  0  0  0  0
 33 28  1  0  0  0  0
 34 35  1  0  0  0  0
 36 37  1  0  0  0  0
M  END
>  <minimizedAffinity>
-9.57777023

$$$$

 OpenBabel12271914483D

 37 41  0  0  1  0  0  0  0  0999 V2000
  -15.6800  -26.1580  -11.0370 C   0  0  2  0  0  0  0  0  0  0  0  0
  -15.8810  -27.4300  -10.3710 O   0  0  0  0  0  0  0  0  0  0  0  0
  -17.0190  -28.1410  -10.3030 C   0  0  0  0  0  0  0  0  0  0  0  0
  -17.0050  -29.3110   -9.8990 O   0  0  0  0  0  0  0  0  0  0  0  0
  -18.2740  -27.5020  -10.7160 C   0  0  0  0  0  0  0  0  0  0  0  0
  -18.2640  -26.2640  -11.2690 C   0  0  0  0  0  0  0  0  0  0  0  0
  -19.3070  -25.6440  -11.6980 O   0  0  0  0  0  0  0  0  0  0  0  0
  -17.0000  -25.4570  -11.4000 C   0  0  0  0  0  0  0  0  0  0  0  0
  -14.8270  -26.4850  -12.2670 C   0  0  0  0  0  0  0  0  0  0  0  0
  -15.5370  -26.2120  -13.6150 C   0  0  0  0  0  0  0  0  0  0  0  0
  -14.4730  -25.7090  -14.5960 C   0  0  0  0  0  0  0  0  0  0  0  0
  -13.1430  -25.7660  -13.8620 C   0  0  0  0  0  0  0  0  0  0  0  0
  -13.5240  -25.6640  -12.3900 C   0  0  0  0  0  0  0  0  0  0  0  0
  -19.5450  -28.2830  -10.5300 C   0  0  0  0  0  0  0  0  0  0  0  0
  -19.9690  -28.9860  -11.7910 C   0  0  0  0  0  0  0  0  0  0  0  0
  -21.2380  -29.0280  -12.2540 N   0  0  0  0  0  0  0  0  0  0  0  0
  -21.1920  -29.7230  -13.3620 C   0  0  0  0  0  0  0  0  0  0  0  0
  -22.1890  -30.0860  -14.2390 N   0  0  0  0  0  0  0  0  0  0  0  0
  -21.8560  -30.7870  -15.2670 C   0  0  0  0  0  0  0  0  0  0  0  0
  -22.9010  -31.1880  -16.2640 C   0  0  0  0  0  0  0  0  0  0  0  0
  -20.4700  -31.2400  -15.5450 C   0  0  0  0  0  0  0  0  0  0  0  0
  -19.5220  -30.8610  -14.6790 C   0  0  0  0  0  0  0  0  0  0  0  0
  -18.0880  -31.2360  -14.8720 C   0  0  0  0  0  0  0  0  0  0  0  0
  -19.8820  -30.0860  -13.5820 N   0  0  0  0  0  0  0  0  0  0  0  0
  -19.1020  -29.5560  -12.6290 N   0  0  0  0  0  0  0  0  0  0  0  0
  -14.9370  -25.3870   -9.9410 C   0  0  0  0  0  0  0  0  0  0  0  0
  -14.2410  -26.0970   -8.7800 C   0  0  0  0  0  0  0  0  0  0  0  0
  -17.0310  -26.0470   -6.2240 C   0  0  0  0  0  0  0  0  0  0  0  0
  -16.5590  -26.8730   -5.2620 N   0  0  0  0  0  0  0  0  0  0  0  0
  -15.3250  -27.3980   -5.4150 C   0  0  0  0  0  0  0  0  0  0  0  0
  -14.5560  -27.1470   -6.5330 C   0  0  0  0  0  0  0  0  0  0  0  0
  -15.0410  -26.3170   -7.5330 C   0  0  0  0  0  0  0  0  0  0  0  0
  -16.2990  -25.7510   -7.3640 C   0  0  0  0  0  0  0  0  0  0  0  0
  -19.3600  -26.1780   -7.0580 C   0  0  0  0  0  0  0  0  0  0  0  0
  -18.4380  -25.5210   -6.0380 C   0  0  0  0  0  0  0  0  0  0  0  0
  -14.8100  -28.3440   -4.3570 C   0  0  0  0  0  0  0  0  0  0  0  0
  -15.7950  -28.3610   -3.1900 C   0  0  0  0  0  0  0  0  0  0  0  0
  1  2  1  0  0  0  0
  1 26  1  1  0  0  0
  2  3  1  0  0  0  0
  3  4  2  0  0  0  0
  5 14  1  0  0  0  0
  5  3  1  0  0  0  0
  6  5  2  0  0  0  0
  7  6  1  0  0  0  0
  8  6  1  0  0  0  0
  8  1  1  0  0  0  0
  9  1  1  0  0  0  0
 10  9  1  0  0  0  0
 11 12  1  0  0  0  0
 11 10  1  0  0  0  0
 12 13  1  0  0  0  0
 13  9  1  0  0  0  0
 15 14  1  0  0  0  0
 16 15  2  0  0  0  0
 17 16  2  0  0  0  0
 18 17  2  0  0  0  0
 19 18  2  0  0  0  0
 20 19  1  0  0  0  0
 21 19  1  0  0  0  0
 21 22  2  0  0  0  0
 22 24  1  0  0  0  0
 23 22  1  0  0  0  0
 24 17  1  0  0  0  0
 24 25  1  0  0  0  0
 25 15  2  0  0  0  0
 26 27  1  0  0  0  0
 27 32  1  0  0  0  0
 28 35  1  0  0  0  0
 28 29  2  0  0  0  0
 30 29  2  0  0  0  0
 30 36  1  0  0  0  0
 31 30  1  0  0  0  0
 32 33  1  0  0  0  0
 32 31  2  0  0  0  0
 33 28  1  0  0  0  0
 34 35  1  0  0  0  0
 36 37  1  0  0  0  0
M  END
>  <minimizedAffinity>
-9.46232605

$$$$

 OpenBabel12271914483D

 37 41  0  0  1  0  0  0  0  0999 V2000
  -27.1210  -26.8160   -4.8690 C   0  0  2  0  0  0  0  0  0  0  0  0
  -26.6770  -25.4660   -5.1530 O   0  0  0  0  0  0  0  0  0  0  0  0
  -25.9700  -25.0490   -6.2180 C   0  0  0  0  0  0  0  0  0  0  0  0
  -25.8460  -23.8410   -6.4550 O   0  0  0  0  0  0  0  0  0  0  0  0
  -25.3500  -26.0550   -7.0880 C   0  0  0  0  0  0  0  0  0  0  0  0
  -25.5900  -27.3750   -6.8900 C   0  0  0  0  0  0  0  0  0  0  0  0
  -25.1250  -28.3230   -7.6260 O   0  0  0  0  0  0  0  0  0  0  0  0
  -26.4130  -27.8740   -5.7330 C   0  0  0  0  0  0  0  0  0  0  0  0
  -28.6370  -26.7890   -5.0930 C   0  0  0  0  0  0  0  0  0  0  0  0
  -29.0870  -27.4320   -6.4270 C   0  0  0  0  0  0  0  0  0  0  0  0
  -30.4250  -28.1330   -6.1670 C   0  0  0  0  0  0  0  0  0  0  0  0
  -30.7970  -27.8350   -4.7240 C   0  0  0  0  0  0  0  0  0  0  0  0
  -29.4620  -27.5640   -4.0410 C   0  0  0  0  0  0  0  0  0  0  0  0
  -24.4780  -25.5610   -8.2080 C   0  0  0  0  0  0  0  0  0  0  0  0
  -23.0160  -25.7870   -7.9300 C   0  0  0  0  0  0  0  0  0  0  0  0
  -22.4170  -25.5530   -6.7410 N   0  0  0  0  0  0  0  0  0  0  0  0
  -21.1590  -25.8740   -6.9040 C   0  0  0  0  0  0  0  0  0  0  0  0
  -20.0970  -25.8250   -6.0300 N   0  0  0  0  0  0  0  0  0  0  0  0
  -18.9460  -26.2060   -6.4640 C   0  0  0  0  0  0  0  0  0  0  0  0
  -17.7630  -26.1930   -5.5440 C   0  0  0  0  0  0  0  0  0  0  0  0
  -18.6990  -26.6700   -7.8520 C   0  0  0  0  0  0  0  0  0  0  0  0
  -19.7540  -26.7170   -8.6740 C   0  0  0  0  0  0  0  0  0  0  0  0
  -19.6290  -27.1930  -10.0860 C   0  0  0  0  0  0  0  0  0  0  0  0
  -21.0000  -26.3260   -8.1950 N   0  0  0  0  0  0  0  0  0  0  0  0
  -22.1870  -26.3400   -8.8170 N   0  0  0  0  0  0  0  0  0  0  0  0
  -26.7030  -26.9420   -3.4010 C   0  0  0  0  0  0  0  0  0  0  0  0
  -25.8980  -25.8540   -2.6910 C   0  0  0  0  0  0  0  0  0  0  0  0
  -28.6720  -23.7130   -1.2610 C   0  0  0  0  0  0  0  0  0  0  0  0
  -28.0160  -22.5820   -0.9130 N   0  0  0  0  0  0  0  0  0  0  0  0
  -26.6980  -22.4920   -1.1900 C   0  0  0  0  0  0  0  0  0  0  0  0
  -26.0010  -23.5290   -1.7770 C   0  0  0  0  0  0  0  0  0  0  0  0
  -26.6620  -24.6990   -2.1190 C   0  0  0  0  0  0  0  0  0  0  0  0
  -28.0260  -24.7820   -1.8620 C   0  0  0  0  0  0  0  0  0  0  0  0
  -30.6750  -25.1690   -1.2550 C   0  0  0  0  0  0  0  0  0  0  0  0
  -30.1360  -23.7920   -0.8870 C   0  0  0  0  0  0  0  0  0  0  0  0
  -25.9590  -21.2430   -0.7740 C   0  0  0  0  0  0  0  0  0  0  0  0
  -26.8410  -20.4450    0.1830 C   0  0  0  0  0  0  0  0  0  0  0  0
  1 26  1  1  0  0  0
  2  1  1  0  0  0  0
  3  2  1  0  0  0  0
  4  3  2  0  0  0  0
  5  6  2  0  0  0  0
  5  3  1  0  0  0  0
  6  8  1  0  0  0  0
  7  6  1  0  0  0  0
  8  1  1  0  0  0  0
  9  1  1  0  0  0  0
  9 13  1  0  0  0  0
 10 11  1  0  0  0  0
 10  9  1  0  0  0  0
 11 12  1  0  0  0  0
 12 13  1  0  0  0  0
 14 15  1  0  0  0  0
 14  5  1  0  0  0  0
 15 16  2  0  0  0  0
 17 16  2  0  0  0  0
 17 18  2  0  0  0  0
 19 18  2  0  0  0  0
 19 20  1  0  0  0  0
 21 19  1  0  0  0  0
 22 24  1  0  0  0  0
 22 21  2  0  0  0  0
 23 22  1  0  0  0  0
 24 17  1  0  0  0  0
 25 24  1  0  0  0  0
 25 15  2  0  0  0  0
 26 27  1  0  0  0  0
 27 32  1  0  0  0  0
 28 29  2  0  0  0  0
 28 35  1  0  0  0  0
 30 29  2  0  0  0  0
 30 36  1  0  0  0  0
 31 30  1  0  0  0  0
 32 33  1  0  0  0  0
 32 31  2  0  0  0  0
 33 28  1  0  0  0  0
 34 35  1  0  0  0  0
 36 37  1  0  0  0  0
M  END
>  <minimizedAffinity>
-9.24191189

$$$$

 OpenBabel12271914483D

 37 41  0  0  1  0  0  0  0  0999 V2000
  -27.2330  -26.8120   -5.1900 C   0  0  2  0  0  0  0  0  0  0  0  0
  -26.9040  -25.4270   -5.4630 O   0  0  0  0  0  0  0  0  0  0  0  0
  -26.1460  -24.9540   -6.4680 C   0  0  0  0  0  0  0  0  0  0  0  0
  -26.1240  -23.7430   -6.7220 O   0  0  0  0  0  0  0  0  0  0  0  0
  -25.3480  -25.9020   -7.2540 C   0  0  0  0  0  0  0  0  0  0  0  0
  -25.4700  -27.2370   -7.0470 C   0  0  0  0  0  0  0  0  0  0  0  0
  -24.8440  -28.1420   -7.7150 O   0  0  0  0  0  0  0  0  0  0  0  0
  -26.3430  -27.8020   -5.9590 C   0  0  0  0  0  0  0  0  0  0  0  0
  -28.7160  -26.9450   -5.5520 C   0  0  0  0  0  0  0  0  0  0  0  0
  -29.0200  -28.0980   -6.5390 C   0  0  0  0  0  0  0  0  0  0  0  0
  -30.3790  -28.6870   -6.1460 C   0  0  0  0  0  0  0  0  0  0  0  0
  -30.9040  -27.8400   -4.9980 C   0  0  0  0  0  0  0  0  0  0  0  0
  -29.6500  -27.2540   -4.3610 C   0  0  0  0  0  0  0  0  0  0  0  0
  -24.4290  -25.3370   -8.3000 C   0  0  0  0  0  0  0  0  0  0  0  0
  -22.9830  -25.6300   -8.0040 C   0  0  0  0  0  0  0  0  0  0  0  0
  -22.3890  -25.4240   -6.8070 N   0  0  0  0  0  0  0  0  0  0  0  0
  -21.1460  -25.8020   -6.9540 C   0  0  0  0  0  0  0  0  0  0  0  0
  -20.0940  -25.8020   -6.0670 N   0  0  0  0  0  0  0  0  0  0  0  0
  -18.9570  -26.2360   -6.4860 C   0  0  0  0  0  0  0  0  0  0  0  0
  -17.7860  -26.2780   -5.5510 C   0  0  0  0  0  0  0  0  0  0  0  0
  -18.7130  -26.7130   -7.8710 C   0  0  0  0  0  0  0  0  0  0  0  0
  -19.7590  -26.7110   -8.7060 C   0  0  0  0  0  0  0  0  0  0  0  0
  -19.6380  -27.1930  -10.1160 C   0  0  0  0  0  0  0  0  0  0  0  0
  -20.9910  -26.2620   -8.2430 N   0  0  0  0  0  0  0  0  0  0  0  0
  -22.1700  -26.2220   -8.8800 N   0  0  0  0  0  0  0  0  0  0  0  0
  -26.9440  -26.8720   -3.6870 C   0  0  0  0  0  0  0  0  0  0  0  0
  -26.0270  -25.8630   -2.9960 C   0  0  0  0  0  0  0  0  0  0  0  0
  -26.6300  -22.7310   -0.9590 C   0  0  0  0  0  0  0  0  0  0  0  0
  -27.9620  -22.7840   -0.7310 N   0  0  0  0  0  0  0  0  0  0  0  0
  -28.6500  -23.8520   -1.1880 C   0  0  0  0  0  0  0  0  0  0  0  0
  -28.0420  -24.8620   -1.9050 C   0  0  0  0  0  0  0  0  0  0  0  0
  -26.6800  -24.8060   -2.1580 C   0  0  0  0  0  0  0  0  0  0  0  0
  -25.9640  -23.7220   -1.6640 C   0  0  0  0  0  0  0  0  0  0  0  0
  -26.9260  -20.4700    0.0060 C   0  0  0  0  0  0  0  0  0  0  0  0
  -25.9060  -21.4930   -0.4750 C   0  0  0  0  0  0  0  0  0  0  0  0
  -30.1420  -23.8960   -0.9620 C   0  0  0  0  0  0  0  0  0  0  0  0
  -30.6520  -25.2930   -1.3070 C   0  0  0  0  0  0  0  0  0  0  0  0
  1 26  1  1  0  0  0
  2  1  1  0  0  0  0
  3  2  1  0  0  0  0
  4  3  2  0  0  0  0
  5  6  2  0  0  0  0
  5  3  1  0  0  0  0
  6  8  1  0  0  0  0
  7  6  1  0  0  0  0
  8  1  1  0  0  0  0
  9  1  1  0  0  0  0
  9 13  1  0  0  0  0
 10 11  1  0  0  0  0
 10  9  1  0  0  0  0
 11 12  1  0  0  0  0
 12 13  1  0  0  0  0
 14 15  1  0  0  0  0
 14  5  1  0  0  0  0
 15 16  2  0  0  0  0
 17 16  2  0  0  0  0
 17 18  2  0  0  0  0
 19 18  2  0  0  0  0
 19 20  1  0  0  0  0
 21 19  1  0  0  0  0
 22 24  1  0  0  0  0
 22 21  2  0  0  0  0
 23 22  1  0  0  0  0
 24 17  1  0  0  0  0
 25 24  1  0  0  0  0
 25 15  2  0  0  0  0
 26 27  1  0  0  0  0
 27 32  1  0  0  0  0
 28 29  2  0  0  0  0
 28 35  1  0  0  0  0
 30 36  1  0  0  0  0
 30 29  2  0  0  0  0
 31 30  1  0  0  0  0
 32 31  2  0  0  0  0
 32 33  1  0  0  0  0
 33 28  1  0  0  0  0
 35 34  1  0  0  0  0
 37 36  1  0  0  0  0
M  END
>  <minimizedAffinity>
-9.17449379

$$$$

 OpenBabel12271914483D

 37 41  0  0  1  0  0  0  0  0999 V2000
  -19.4000  -26.8620   -8.7210 C   0  0  2  0  0  0  0  0  0  0  0  0
  -18.7990  -25.9190   -9.6430 O   0  0  0  0  0  0  0  0  0  0  0  0
  -17.9320  -26.1900  -10.6330 C   0  0  0  0  0  0  0  0  0  0  0  0
  -17.6660  -25.3340  -11.4870 O   0  0  0  0  0  0  0  0  0  0  0  0
  -17.3080  -27.5180  -10.6790 C   0  0  0  0  0  0  0  0  0  0  0  0
  -17.6940  -28.4860   -9.8120 C   0  0  0  0  0  0  0  0  0  0  0  0
  -17.2350  -29.6890   -9.8050 O   0  0  0  0  0  0  0  0  0  0  0  0
  -18.6960  -28.2290   -8.7180 C   0  0  0  0  0  0  0  0  0  0  0  0
  -20.8680  -26.9540   -9.1510 C   0  0  0  0  0  0  0  0  0  0  0  0
  -21.4530  -25.6220   -9.6770 C   0  0  0  0  0  0  0  0  0  0  0  0
  -22.4300  -25.9670  -10.8070 C   0  0  0  0  0  0  0  0  0  0  0  0
  -22.4800  -27.4840  -10.8870 C   0  0  0  0  0  0  0  0  0  0  0  0
  -21.1430  -27.9350  -10.3130 C   0  0  0  0  0  0  0  0  0  0  0  0
  -16.2630  -27.7580  -11.7320 C   0  0  0  0  0  0  0  0  0  0  0  0
  -16.8010  -28.5500  -12.8940 C   0  0  0  0  0  0  0  0  0  0  0  0
  -16.0890  -28.8700  -13.9970 N   0  0  0  0  0  0  0  0  0  0  0  0
  -16.9000  -29.5560  -14.7610 C   0  0  0  0  0  0  0  0  0  0  0  0
  -16.7070  -30.1210  -16.0010 N   0  0  0  0  0  0  0  0  0  0  0  0
  -17.6970  -30.7500  -16.5330 C   0  0  0  0  0  0  0  0  0  0  0  0
  -17.5300  -31.4020  -17.8720 C   0  0  0  0  0  0  0  0  0  0  0  0
  -19.0320  -30.8790  -15.8970 C   0  0  0  0  0  0  0  0  0  0  0  0
  -19.1840  -30.3290  -14.6860 C   0  0  0  0  0  0  0  0  0  0  0  0
  -20.4760  -30.4200  -13.9390 C   0  0  0  0  0  0  0  0  0  0  0  0
  -18.1060  -29.6700  -14.1050 N   0  0  0  0  0  0  0  0  0  0  0  0
  -18.0170  -29.0980  -12.8960 N   0  0  0  0  0  0  0  0  0  0  0  0
  -19.1770  -26.1310   -7.3930 C   0  0  0  0  0  0  0  0  0  0  0  0
  -18.0000  -25.1800   -7.1790 C   0  0  0  0  0  0  0  0  0  0  0  0
  -15.2150  -27.2140   -5.6230 C   0  0  0  0  0  0  0  0  0  0  0  0
  -14.2020  -27.0410   -6.5030 N   0  0  0  0  0  0  0  0  0  0  0  0
  -14.4020  -26.2290   -7.5620 C   0  0  0  0  0  0  0  0  0  0  0  0
  -15.6140  -25.6070   -7.7890 C   0  0  0  0  0  0  0  0  0  0  0  0
  -16.6630  -25.7950   -6.9010 C   0  0  0  0  0  0  0  0  0  0  0  0
  -16.4490  -26.6070   -5.7940 C   0  0  0  0  0  0  0  0  0  0  0  0
  -16.1220  -28.0880   -3.4900 C   0  0  0  0  0  0  0  0  0  0  0  0
  -14.9650  -28.1720   -4.4780 C   0  0  0  0  0  0  0  0  0  0  0  0
  -13.2830  -26.0610   -8.5610 C   0  0  0  0  0  0  0  0  0  0  0  0
  -13.8830  -25.6870   -9.9150 C   0  0  0  0  0  0  0  0  0  0  0  0
  1  8  1  0  0  0  0
  1 26  1  1  0  0  0
  2  1  1  0  0  0  0
  3  2  1  0  0  0  0
  4  3  2  0  0  0  0
  5  3  1  0  0  0  0
  5  6  2  0  0  0  0
  6  7  1  0  0  0  0
  6  8  1  0  0  0  0
  9  1  1  0  0  0  0
 10  9  1  0  0  0  0
 11 10  1  0  0  0  0
 12 11  1  0  0  0  0
 12 13  1  0  0  0  0
 13  9  1  0  0  0  0
 14  5  1  0  0  0  0
 15 14  1  0  0  0  0
 16 15  2  0  0  0  0
 17 24  1  0  0  0  0
 17 16  2  0  0  0  0
 18 17  2  0  0  0  0
 19 18  2  0  0  0  0
 19 21  1  0  0  0  0
 20 19  1  0  0  0  0
 21 22  2  0  0  0  0
 22 24  1  0  0  0  0
 22 23  1  0  0  0  0
 24 25  1  0  0  0  0
 25 15  2  0  0  0  0
 26 27  1  0  0  0  0
 27 32  1  0  0  0  0
 28 35  1  0  0  0  0
 29 28  2  0  0  0  0
 30 29  2  0  0  0  0
 31 30  1  0  0  0  0
 31 32  2  0  0  0  0
 32 33  1  0  0  0  0
 33 28  1  0  0  0  0
 35 34  1  0  0  0  0
 36 30  1  0  0  0  0
 37 36  1  0  0  0  0
M  END
>  <minimizedAffinity>
-8.94290161

$$$$

 OpenBabel12271914483D

 37 41  0  0  1  0  0  0  0  0999 V2000
  -13.4870  -25.7430  -14.7190 C   0  0  2  0  0  0  0  0  0  0  0  0
  -13.1930  -27.1200  -14.3760 O   0  0  0  0  0  0  0  0  0  0  0  0
  -13.9220  -28.2080  -14.6810 C   0  0  0  0  0  0  0  0  0  0  0  0
  -13.4530  -29.3420  -14.5250 O   0  0  0  0  0  0  0  0  0  0  0  0
  -15.2830  -28.0200  -15.1990 C   0  0  0  0  0  0  0  0  0  0  0  0
  -15.7440  -26.7760  -15.4780 C   0  0  0  0  0  0  0  0  0  0  0  0
  -16.9050  -26.5190  -15.9730 O   0  0  0  0  0  0  0  0  0  0  0  0
  -14.9370  -25.5390  -15.1900 C   0  0  0  0  0  0  0  0  0  0  0  0
  -12.4590  -25.3750  -15.7940 C   0  0  0  0  0  0  0  0  0  0  0  0
  -13.0830  -24.8010  -17.0890 C   0  0  0  0  0  0  0  0  0  0  0  0
  -12.1250  -23.7300  -17.6200 C   0  0  0  0  0  0  0  0  0  0  0  0
  -10.9170  -23.7320  -16.6980 C   0  0  0  0  0  0  0  0  0  0  0  0
  -11.4530  -24.2780  -15.3800 C   0  0  0  0  0  0  0  0  0  0  0  0
  -16.1130  -29.2510  -15.4300 C   0  0  0  0  0  0  0  0  0  0  0  0
  -17.1700  -29.4290  -14.3730 C   0  0  0  0  0  0  0  0  0  0  0  0
  -18.4530  -29.7720  -14.6220 N   0  0  0  0  0  0  0  0  0  0  0  0
  -19.0430  -29.8270  -13.4560 C   0  0  0  0  0  0  0  0  0  0  0  0
  -20.3450  -30.1180  -13.1180 N   0  0  0  0  0  0  0  0  0  0  0  0
  -20.6580  -30.0970  -11.8700 C   0  0  0  0  0  0  0  0  0  0  0  0
  -22.0590  -30.4290  -11.4490 C   0  0  0  0  0  0  0  0  0  0  0  0
  -19.7050  -29.7580  -10.7830 C   0  0  0  0  0  0  0  0  0  0  0  0
  -18.4440  -29.4920  -11.1440 C   0  0  0  0  0  0  0  0  0  0  0  0
  -17.3920  -29.1640  -10.1330 C   0  0  0  0  0  0  0  0  0  0  0  0
  -18.1040  -29.5370  -12.4910 N   0  0  0  0  0  0  0  0  0  0  0  0
  -16.9070  -29.3590  -13.0670 N   0  0  0  0  0  0  0  0  0  0  0  0
  -13.2530  -25.0650  -13.3650 C   0  0  0  0  0  0  0  0  0  0  0  0
  -13.2500  -25.8520  -12.0540 C   0  0  0  0  0  0  0  0  0  0  0  0
  -16.8180  -25.6870  -10.8030 C   0  0  0  0  0  0  0  0  0  0  0  0
  -16.6530  -25.5940   -9.4640 N   0  0  0  0  0  0  0  0  0  0  0  0
  -15.3960  -25.5310   -8.9740 C   0  0  0  0  0  0  0  0  0  0  0  0
  -14.2870  -25.5960   -9.7940 C   0  0  0  0  0  0  0  0  0  0  0  0
  -14.4490  -25.7100  -11.1660 C   0  0  0  0  0  0  0  0  0  0  0  0
  -15.7420  -25.7450  -11.6750 C   0  0  0  0  0  0  0  0  0  0  0  0
  -18.2370  -25.8090  -12.8300 C   0  0  0  0  0  0  0  0  0  0  0  0
  -18.2400  -25.8060  -11.3060 C   0  0  0  0  0  0  0  0  0  0  0  0
  -15.2100  -25.4600   -7.4780 C   0  0  0  0  0  0  0  0  0  0  0  0
  -15.7580  -26.7400   -6.8520 C   0  0  0  0  0  0  0  0  0  0  0  0
  1  2  1  0  0  0  0
  1 26  1  1  0  0  0
  3  4  2  0  0  0  0
  3  2  1  0  0  0  0
  5  3  1  0  0  0  0
  6  5  2  0  0  0  0
  6  8  1  0  0  0  0
  7  6  1  0  0  0  0
  8  1  1  0  0  0  0
  9 13  1  0  0  0  0
  9  1  1  0  0  0  0
 10  9  1  0  0  0  0
 11 10  1  0  0  0  0
 11 12  1  0  0  0  0
 12 13  1  0  0  0  0
 14  5  1  0  0  0  0
 14 15  1  0  0  0  0
 15 25  2  0  0  0  0
 16 15  2  0  0  0  0
 16 17  2  0  0  0  0
 17 18  2  0  0  0  0
 17 24  1  0  0  0  0
 18 19  2  0  0  0  0
 19 20  1  0  0  0  0
 19 21  1  0  0  0  0
 22 21  2  0  0  0  0
 22 23  1  0  0  0  0
 24 22  1  0  0  0  0
 25 24  1  0  0  0  0
 26 27  1  0  0  0  0
 27 32  1  0  0  0  0
 28 29  2  0  0  0  0
 29 30  2  0  0  0  0
 30 36  1  0  0  0  0
 31 30  1  0  0  0  0
 32 31  2  0  0  0  0
 33 32  1  0  0  0  0
 33 28  1  0  0  0  0
 34 35  1  0  0  0  0
 35 28  1  0  0  0  0
 36 37  1  0  0  0  0
M  END
>  <minimizedAffinity>
-8.87845516

$$$$

 OpenBabel12271914483D

 37 41  0  0  1  0  0  0  0  0999 V2000
  -16.8270  -27.2970  -10.6340 C   0  0  2  0  0  0  0  0  0  0  0  0
  -16.4360  -28.2100  -11.6900 O   0  0  0  0  0  0  0  0  0  0  0  0
  -16.4010  -27.9610  -13.0100 C   0  0  0  0  0  0  0  0  0  0  0  0
  -15.8400  -28.7470  -13.7830 O   0  0  0  0  0  0  0  0  0  0  0  0
  -17.0440  -26.7400  -13.5120 C   0  0  0  0  0  0  0  0  0  0  0  0
  -17.5510  -25.8270  -12.6480 C   0  0  0  0  0  0  0  0  0  0  0  0
  -18.0930  -24.7120  -12.9950 O   0  0  0  0  0  0  0  0  0  0  0  0
  -17.5670  -26.0550  -11.1600 C   0  0  0  0  0  0  0  0  0  0  0  0
  -15.5220  -26.9460   -9.9110 C   0  0  0  0  0  0  0  0  0  0  0  0
  -15.4150  -25.4590   -9.4950 C   0  0  0  0  0  0  0  0  0  0  0  0
  -14.6760  -25.4130   -8.1540 C   0  0  0  0  0  0  0  0  0  0  0  0
  -14.2800  -26.8430   -7.8280 C   0  0  0  0  0  0  0  0  0  0  0  0
  -15.2970  -27.6940   -8.5790 C   0  0  0  0  0  0  0  0  0  0  0  0
  -17.0840  -26.5400  -15.0010 C   0  0  0  0  0  0  0  0  0  0  0  0
  -15.8190  -25.9140  -15.5240 C   0  0  0  0  0  0  0  0  0  0  0  0
  -14.7040  -25.7120  -14.7870 N   0  0  0  0  0  0  0  0  0  0  0  0
  -13.8380  -25.1550  -15.5950 C   0  0  0  0  0  0  0  0  0  0  0  0
  -12.5480  -24.7280  -15.3750 N   0  0  0  0  0  0  0  0  0  0  0  0
  -11.9140  -24.2050  -16.3660 C   0  0  0  0  0  0  0  0  0  0  0  0
  -10.4980  -23.7440  -16.1830 C   0  0  0  0  0  0  0  0  0  0  0  0
  -12.5000  -24.0180  -17.7170 C   0  0  0  0  0  0  0  0  0  0  0  0
  -13.7510  -24.4550  -17.9010 C   0  0  0  0  0  0  0  0  0  0  0  0
  -14.4340  -24.3440  -19.2270 C   0  0  0  0  0  0  0  0  0  0  0  0
  -14.4250  -25.0390  -16.8350 N   0  0  0  0  0  0  0  0  0  0  0  0
  -15.6490  -25.5860  -16.8060 N   0  0  0  0  0  0  0  0  0  0  0  0
  -17.7720  -28.1940   -9.8290 C   0  0  0  0  0  0  0  0  0  0  0  0
  -19.2660  -27.8960   -9.7090 C   0  0  0  0  0  0  0  0  0  0  0  0
  -21.3860  -25.8400   -7.3430 C   0  0  0  0  0  0  0  0  0  0  0  0
  -20.5130  -25.5450   -6.3520 N   0  0  0  0  0  0  0  0  0  0  0  0
  -19.2360  -25.9620   -6.4760 C   0  0  0  0  0  0  0  0  0  0  0  0
  -18.8100  -26.7070   -7.5580 C   0  0  0  0  0  0  0  0  0  0  0  0
  -19.7040  -27.0290   -8.5680 C   0  0  0  0  0  0  0  0  0  0  0  0
  -21.0130  -26.5750   -8.4580 C   0  0  0  0  0  0  0  0  0  0  0  0
  -23.4200  -25.0100   -8.4860 C   0  0  0  0  0  0  0  0  0  0  0  0
  -22.8190  -25.3970   -7.1410 C   0  0  0  0  0  0  0  0  0  0  0  0
  -18.2690  -25.6610   -5.3570 C   0  0  0  0  0  0  0  0  0  0  0  0
  -17.1380  -26.6860   -5.3920 C   0  0  0  0  0  0  0  0  0  0  0  0
  1  9  1  0  0  0  0
  1 26  1  1  0  0  0
  2  1  1  0  0  0  0
  3  2  1  0  0  0  0
  4  3  2  0  0  0  0
  5  3  1  0  0  0  0
  5  6  2  0  0  0  0
  6  8  1  0  0  0  0
  7  6  1  0  0  0  0
  8  1  1  0  0  0  0
  9 10  1  0  0  0  0
  9 13  1  0  0  0  0
 10 11  1  0  0  0  0
 11 12  1  0  0  0  0
 13 12  1  0  0  0  0
 14  5  1  0  0  0  0
 15 14  1  0  0  0  0
 15 16  2  0  0  0  0
 17 18  2  0  0  0  0
 17 16  2  0  0  0  0
 19 20  1  0  0  0  0
 19 18  2  0  0  0  0
 21 19  1  0  0  0  0
 22 21  2  0  0  0  0
 22 24  1  0  0  0  0
 23 22  1  0  0  0  0
 24 25  1  0  0  0  0
 24 17  1  0  0  0  0
 25 15  2  0  0  0  0
 26 27  1  0  0  0  0
 27 32  1  0  0  0  0
 28 35  1  0  0  0  0
 28 29  2  0  0  0  0
 30 29  2  0  0  0  0
 30 36  1  0  0  0  0
 31 30  1  0  0  0  0
 32 33  1  0  0  0  0
 32 31  2  0  0  0  0
 33 28  1  0  0  0  0
 34 35  1  0  0  0  0
 37 36  1  0  0  0  0
M  END
>  <minimizedAffinity>
-8.80168819

$$$$

 OpenBabel12271914483D

 37 41  0  0  1  0  0  0  0  0999 V2000
  -16.5480  -27.3080  -10.6630 C   0  0  2  0  0  0  0  0  0  0  0  0
  -16.2150  -28.2090  -11.7490 O   0  0  0  0  0  0  0  0  0  0  0  0
  -16.2300  -27.9370  -13.0650 C   0  0  0  0  0  0  0  0  0  0  0  0
  -15.7140  -28.7180  -13.8740 O   0  0  0  0  0  0  0  0  0  0  0  0
  -16.8720  -26.6970  -13.5190 C   0  0  0  0  0  0  0  0  0  0  0  0
  -17.3290  -25.7920  -12.6200 C   0  0  0  0  0  0  0  0  0  0  0  0
  -17.8660  -24.6630  -12.9250 O   0  0  0  0  0  0  0  0  0  0  0  0
  -17.2880  -26.0460  -11.1360 C   0  0  0  0  0  0  0  0  0  0  0  0
  -15.2090  -26.9900   -9.9880 C   0  0  0  0  0  0  0  0  0  0  0  0
  -14.9760  -25.4820   -9.7340 C   0  0  0  0  0  0  0  0  0  0  0  0
  -14.2170  -25.3540   -8.4090 C   0  0  0  0  0  0  0  0  0  0  0  0
  -13.9340  -26.7700   -7.9330 C   0  0  0  0  0  0  0  0  0  0  0  0
  -15.0270  -27.6090   -8.5840 C   0  0  0  0  0  0  0  0  0  0  0  0
  -16.9700  -26.4700  -15.0020 C   0  0  0  0  0  0  0  0  0  0  0  0
  -15.7260  -25.8320  -15.5610 C   0  0  0  0  0  0  0  0  0  0  0  0
  -14.5700  -25.6830  -14.8780 N   0  0  0  0  0  0  0  0  0  0  0  0
  -13.7410  -25.0950  -15.7030 C   0  0  0  0  0  0  0  0  0  0  0  0
  -12.4350  -24.6960  -15.5330 N   0  0  0  0  0  0  0  0  0  0  0  0
  -11.8480  -24.1290  -16.5300 C   0  0  0  0  0  0  0  0  0  0  0  0
  -10.4180  -23.6960  -16.4030 C   0  0  0  0  0  0  0  0  0  0  0  0
  -12.5040  -23.8650  -17.8350 C   0  0  0  0  0  0  0  0  0  0  0  0
  -13.7710  -24.2770  -17.9710 C   0  0  0  0  0  0  0  0  0  0  0  0
  -14.5230  -24.0890  -19.2500 C   0  0  0  0  0  0  0  0  0  0  0  0
  -14.3940  -24.9080  -16.9010 N   0  0  0  0  0  0  0  0  0  0  0  0
  -15.6220  -25.4410  -16.8320 N   0  0  0  0  0  0  0  0  0  0  0  0
  -17.4740  -28.2040   -9.8340 C   0  0  0  0  0  0  0  0  0  0  0  0
  -18.9650  -27.9080   -9.6820 C   0  0  0  0  0  0  0  0  0  0  0  0
  -18.9890  -26.3110   -6.2510 C   0  0  0  0  0  0  0  0  0  0  0  0
  -20.1670  -25.6470   -6.2470 N   0  0  0  0  0  0  0  0  0  0  0  0
  -20.9720  -25.7600   -7.3250 C   0  0  0  0  0  0  0  0  0  0  0  0
  -20.6100  -26.4970   -8.4350 C   0  0  0  0  0  0  0  0  0  0  0  0
  -19.3950  -27.1650   -8.4540 C   0  0  0  0  0  0  0  0  0  0  0  0
  -18.5780  -27.0740   -7.3330 C   0  0  0  0  0  0  0  0  0  0  0  0
  -16.7240  -26.7160   -5.3330 C   0  0  0  0  0  0  0  0  0  0  0  0
  -18.0950  -26.1170   -5.0450 C   0  0  0  0  0  0  0  0  0  0  0  0
  -22.2730  -24.9950   -7.3340 C   0  0  0  0  0  0  0  0  0  0  0  0
  -23.0630  -25.3820   -8.5820 C   0  0  0  0  0  0  0  0  0  0  0  0
  1  9  1  0  0  0  0
  1 26  1  1  0  0  0
  2  1  1  0  0  0  0
  3  2  1  0  0  0  0
  4  3  2  0  0  0  0
  5  3  1  0  0  0  0
  5  6  2  0  0  0  0
  6  8  1  0  0  0  0
  7  6  1  0  0  0  0
  8  1  1  0  0  0  0
  9 10  1  0  0  0  0
  9 13  1  0  0  0  0
 10 11  1  0  0  0  0
 11 12  1  0  0  0  0
 13 12  1  0  0  0  0
 14  5  1  0  0  0  0
 15 14  1  0  0  0  0
 15 16  2  0  0  0  0
 17 18  2  0  0  0  0
 17 16  2  0  0  0  0
 19 20  1  0  0  0  0
 19 18  2  0  0  0  0
 21 19  1  0  0  0  0
 22 21  2  0  0  0  0
 22 24  1  0  0  0  0
 23 22  1  0  0  0  0
 24 25  1  0  0  0  0
 24 17  1  0  0  0  0
 25 15  2  0  0  0  0
 26 27  1  0  0  0  0
 27 32  1  0  0  0  0
 28 29  2  0  0  0  0
 28 35  1  0  0  0  0
 30 29  2  0  0  0  0
 31 30  1  0  0  0  0
 32 31  2  0  0  0  0
 32 33  1  0  0  0  0
 33 28  1  0  0  0  0
 34 35  1  0  0  0  0
 36 30  1  0  0  0  0
 37 36  1  0  0  0  0
M  END
>  <minimizedAffinity>
-8.79950714

$$$$
