
 OpenBabel12271914423D

 32 35  0  0  1  0  0  0  0  0999 V2000
  -13.6120  -26.1020   -9.2370 C   0  0  1  0  0  0  0  0  0  0  0  0
  -12.1500  -26.2710   -9.0200 N   0  0  0  0  0  0  0  0  0  0  0  0
  -11.6250  -25.4230   -9.2860 H   0  0  0  0  0  0  0  0  0  0  0  0
  -11.7710  -27.0710   -9.5460 H   0  0  0  0  0  0  0  0  0  0  0  0
  -11.9440  -26.4540   -8.0310 H   0  0  0  0  0  0  0  0  0  0  0  0
  -14.2500  -25.2270   -8.1480 C   0  0  0  0  0  0  0  0  0  0  0  0
  -14.9650  -25.9720   -7.0750 C   0  0  0  0  0  0  0  0  0  0  0  0
  -16.2900  -25.7800   -6.6250 C   0  0  0  0  0  0  0  0  0  0  0  0
  -17.3310  -24.9030   -6.9570 C   0  0  0  0  0  0  0  0  0  0  0  0
  -18.5560  -24.9800   -6.2780 C   0  0  0  0  0  0  0  0  0  0  0  0
  -18.7470  -25.9020   -5.2700 C   0  0  0  0  0  0  0  0  0  0  0  0
  -17.7230  -26.7770   -4.9140 C   0  0  0  0  0  0  0  0  0  0  0  0
  -16.5140  -26.6940   -5.6120 C   0  0  0  0  0  0  0  0  0  0  0  0
  -15.3650  -27.4310   -5.4280 N   0  0  0  0  0  0  0  0  0  0  0  0
  -15.2220  -28.1470   -4.7410 H   0  0  0  0  0  0  0  0  0  0  0  0
  -14.4300  -26.9910   -6.3250 C   0  0  0  0  0  0  0  0  0  0  0  0
  -13.8980  -25.5970  -10.6550 C   0  0  0  0  0  0  0  0  0  0  0  0
  -15.2710  -25.2020  -10.7220 O   0  0  0  0  0  0  0  0  0  0  0  0
  -16.2270  -26.1490  -10.8940 C   0  0  0  0  0  0  0  0  0  0  0  0
  -17.4420  -26.1720  -10.2220 C   0  0  0  0  0  0  0  0  0  0  0  0
  -18.3690  -27.1760  -10.5100 C   0  0  0  0  0  0  0  0  0  0  0  0
  -18.0210  -28.1250  -11.4570 C   0  0  0  0  0  0  0  0  0  0  0  0
  -16.8390  -28.1390  -12.1080 N   0  0  0  0  0  0  0  0  0  0  0  0
  -15.9690  -27.1510  -11.8170 C   0  0  0  0  0  0  0  0  0  0  0  0
  -19.6800  -27.2530   -9.8640 C   0  0  0  0  0  0  0  0  0  0  0  0
  -20.3460  -26.2190   -9.3230 C   0  0  0  0  0  0  0  0  0  0  0  0
  -21.6590  -26.2850   -8.6700 C   0  0  0  0  0  0  0  0  0  0  0  0
  -22.7130  -26.8840   -9.3660 C   0  0  0  0  0  0  0  0  0  0  0  0
  -23.9510  -26.9530   -8.7690 C   0  0  0  0  0  0  0  0  0  0  0  0
  -24.1850  -26.4660   -7.5410 N   0  0  0  0  0  0  0  0  0  0  0  0
  -23.1640  -25.8910   -6.8780 C   0  0  0  0  0  0  0  0  0  0  0  0
  -21.9010  -25.7810   -7.3980 C   0  0  0  0  0  0  0  0  0  0  0  0
  1 17  1  6  0  0  0
  1  2  1  0  0  0  0
  1  6  1  0  0  0  0
  2  5  1  0  0  0  0
  3  2  1  0  0  0  0
  4  2  1  0  0  0  0
  6  7  1  0  0  0  0
  7  8  1  0  0  0  0
  7 16  2  0  0  0  0
  8 13  1  0  0  0  0
  9  8  2  0  0  0  0
  9 10  1  0  0  0  0
 10 11  2  0  0  0  0
 11 12  1  0  0  0  0
 13 14  1  0  0  0  0
 13 12  2  0  0  0  0
 14 15  1  0  0  0  0
 16 14  1  0  0  0  0
 18 17  1  0  0  0  0
 19 18  1  0  0  0  0
 19 20  2  0  0  0  0
 21 20  1  0  0  0  0
 21 25  1  0  0  0  0
 22 21  2  0  0  0  0
 23 24  2  0  0  0  0
 23 22  1  0  0  0  0
 24 19  1  0  0  0  0
 25 26  2  0  0  0  0
 26 27  1  0  0  0  0
 27 32  2  0  0  0  0
 28 29  2  0  0  0  0
 28 27  1  0  0  0  0
 29 30  1  0  0  0  0
 30 31  2  0  0  0  0
 32 31  1  0  0  0  0
M  END
>  <minimizedAffinity>
-8.4482975

$$$$

 OpenBabel12271914423D

 32 35  0  0  1  0  0  0  0  0999 V2000
  -25.7010  -24.5820   -5.6570 C   0  0  1  0  0  0  0  0  0  0  0  0
  -26.2800  -23.8320   -6.8040 N   0  0  0  0  0  0  0  0  0  0  0  0
  -26.6730  -24.4680   -7.5160 H   0  0  0  0  0  0  0  0  0  0  0  0
  -25.5870  -23.2210   -7.2570 H   0  0  0  0  0  0  0  0  0  0  0  0
  -27.0440  -23.2190   -6.4950 H   0  0  0  0  0  0  0  0  0  0  0  0
  -26.7930  -25.1320   -4.7280 C   0  0  0  0  0  0  0  0  0  0  0  0
  -26.4550  -25.1180   -3.2780 C   0  0  0  0  0  0  0  0  0  0  0  0
  -25.9410  -24.0420   -2.5190 C   0  0  0  0  0  0  0  0  0  0  0  0
  -25.5710  -22.7200   -2.8020 C   0  0  0  0  0  0  0  0  0  0  0  0
  -25.0680  -21.9000   -1.7810 C   0  0  0  0  0  0  0  0  0  0  0  0
  -24.9150  -22.3830   -0.4990 C   0  0  0  0  0  0  0  0  0  0  0  0
  -25.2650  -23.6980   -0.1960 C   0  0  0  0  0  0  0  0  0  0  0  0
  -25.7780  -24.4960   -1.2240 C   0  0  0  0  0  0  0  0  0  0  0  0
  -26.1690  -25.8150   -1.1720 N   0  0  0  0  0  0  0  0  0  0  0  0
  -26.1330  -26.4140   -0.3690 H   0  0  0  0  0  0  0  0  0  0  0  0
  -26.5850  -26.1850   -2.4220 C   0  0  0  0  0  0  0  0  0  0  0  0
  -24.7310  -25.6620   -6.1470 C   0  0  0  0  0  0  0  0  0  0  0  0
  -23.4270  -25.0820   -6.2450 O   0  0  0  0  0  0  0  0  0  0  0  0
  -22.5710  -25.5270   -7.1980 C   0  0  0  0  0  0  0  0  0  0  0  0
  -21.2130  -25.7380   -7.0000 C   0  0  0  0  0  0  0  0  0  0  0  0
  -20.4340  -26.2380   -8.0450 C   0  0  0  0  0  0  0  0  0  0  0  0
  -21.0610  -26.4920   -9.2550 C   0  0  0  0  0  0  0  0  0  0  0  0
  -22.3740  -26.2750   -9.4800 N   0  0  0  0  0  0  0  0  0  0  0  0
  -23.1010  -25.8020   -8.4490 C   0  0  0  0  0  0  0  0  0  0  0  0
  -19.0020  -26.5110   -7.9070 C   0  0  0  0  0  0  0  0  0  0  0  0
  -18.1300  -25.7670   -7.2060 C   0  0  0  0  0  0  0  0  0  0  0  0
  -16.6930  -26.0280   -7.0630 C   0  0  0  0  0  0  0  0  0  0  0  0
  -15.8130  -25.3590   -7.9190 C   0  0  0  0  0  0  0  0  0  0  0  0
  -14.4620  -25.5940   -7.7990 C   0  0  0  0  0  0  0  0  0  0  0  0
  -13.9570  -26.4410   -6.8890 N   0  0  0  0  0  0  0  0  0  0  0  0
  -14.8120  -27.0800   -6.0690 C   0  0  0  0  0  0  0  0  0  0  0  0
  -16.1700  -26.9060   -6.1200 C   0  0  0  0  0  0  0  0  0  0  0  0
  1 17  1  6  0  0  0
  1  6  1  0  0  0  0
  2  5  1  0  0  0  0
  2  1  1  0  0  0  0
  3  2  1  0  0  0  0
  4  2  1  0  0  0  0
  6  7  1  0  0  0  0
  7  8  1  0  0  0  0
  7 16  2  0  0  0  0
  8 13  1  0  0  0  0
  9  8  2  0  0  0  0
  9 10  1  0  0  0  0
 10 11  2  0  0  0  0
 11 12  1  0  0  0  0
 13 14  1  0  0  0  0
 13 12  2  0  0  0  0
 14 15  1  0  0  0  0
 16 14  1  0  0  0  0
 18 17  1  0  0  0  0
 19 20  1  0  0  0  0
 19 18  1  0  0  0  0
 21 25  1  0  0  0  0
 21 20  2  0  0  0  0
 22 21  1  0  0  0  0
 23 22  2  0  0  0  0
 23 24  1  0  0  0  0
 24 19  2  0  0  0  0
 25 26  2  0  0  0  0
 26 27  1  0  0  0  0
 27 32  2  0  0  0  0
 28 29  2  0  0  0  0
 28 27  1  0  0  0  0
 29 30  1  0  0  0  0
 30 31  2  0  0  0  0
 32 31  1  0  0  0  0
M  END
>  <minimizedAffinity>
-8.30389881

$$$$

 OpenBabel12271914423D

 32 35  0  0  1  0  0  0  0  0999 V2000
  -25.6990  -25.2640   -4.8910 C   0  0  1  0  0  0  0  0  0  0  0  0
  -27.0020  -25.8280   -5.3370 N   0  0  0  0  0  0  0  0  0  0  0  0
  -27.0070  -26.8590   -5.2900 H   0  0  0  0  0  0  0  0  0  0  0  0
  -27.2400  -25.5430   -6.2970 H   0  0  0  0  0  0  0  0  0  0  0  0
  -27.7690  -25.4960   -4.7410 H   0  0  0  0  0  0  0  0  0  0  0  0
  -25.5540  -25.3080   -3.3640 C   0  0  0  0  0  0  0  0  0  0  0  0
  -26.0050  -24.0810   -2.6500 C   0  0  0  0  0  0  0  0  0  0  0  0
  -27.2400  -23.8640   -1.9990 C   0  0  0  0  0  0  0  0  0  0  0  0
  -28.4030  -24.6220   -1.8050 C   0  0  0  0  0  0  0  0  0  0  0  0
  -29.4850  -24.0760   -1.0980 C   0  0  0  0  0  0  0  0  0  0  0  0
  -29.4270  -22.7910   -0.6020 C   0  0  0  0  0  0  0  0  0  0  0  0
  -28.2860  -22.0140   -0.7920 C   0  0  0  0  0  0  0  0  0  0  0  0
  -27.2130  -22.5800   -1.4870 C   0  0  0  0  0  0  0  0  0  0  0  0
  -26.0040  -22.0070   -1.8120 N   0  0  0  0  0  0  0  0  0  0  0  0
  -25.7130  -21.0720   -1.5990 H   0  0  0  0  0  0  0  0  0  0  0  0
  -25.2720  -22.9270   -2.5140 C   0  0  0  0  0  0  0  0  0  0  0  0
  -24.5350  -25.9380   -5.6240 C   0  0  0  0  0  0  0  0  0  0  0  0
  -23.7920  -24.9270   -6.3110 O   0  0  0  0  0  0  0  0  0  0  0  0
  -22.8830  -25.2910   -7.2490 C   0  0  0  0  0  0  0  0  0  0  0  0
  -21.5510  -25.5800   -6.9840 C   0  0  0  0  0  0  0  0  0  0  0  0
  -20.7140  -25.9840   -8.0260 C   0  0  0  0  0  0  0  0  0  0  0  0
  -21.2570  -26.0660   -9.2980 C   0  0  0  0  0  0  0  0  0  0  0  0
  -22.5420  -25.7690   -9.5860 N   0  0  0  0  0  0  0  0  0  0  0  0
  -23.3280  -25.3920   -8.5580 C   0  0  0  0  0  0  0  0  0  0  0  0
  -19.3060  -26.3310   -7.8230 C   0  0  0  0  0  0  0  0  0  0  0  0
  -18.4630  -25.7120   -6.9790 C   0  0  0  0  0  0  0  0  0  0  0  0
  -17.0500  -26.0480   -6.7690 C   0  0  0  0  0  0  0  0  0  0  0  0
  -16.1160  -25.5840   -7.7010 C   0  0  0  0  0  0  0  0  0  0  0  0
  -14.7870  -25.8910   -7.5190 C   0  0  0  0  0  0  0  0  0  0  0  0
  -14.3530  -26.6200   -6.4810 N   0  0  0  0  0  0  0  0  0  0  0  0
  -15.2590  -27.0630   -5.5880 C   0  0  0  0  0  0  0  0  0  0  0  0
  -16.6010  -26.8030   -5.6930 C   0  0  0  0  0  0  0  0  0  0  0  0
  1 17  1  6  0  0  0
  1  6  1  0  0  0  0
  2  3  1  0  0  0  0
  2  1  1  0  0  0  0
  2  5  1  0  0  0  0
  4  2  1  0  0  0  0
  6  7  1  0  0  0  0
  7 16  2  0  0  0  0
  7  8  1  0  0  0  0
  8  9  2  0  0  0  0
  8 13  1  0  0  0  0
  9 10  1  0  0  0  0
 10 11  2  0  0  0  0
 12 11  1  0  0  0  0
 13 12  2  0  0  0  0
 14 15  1  0  0  0  0
 14 13  1  0  0  0  0
 16 14  1  0  0  0  0
 18 17  1  0  0  0  0
 19 20  1  0  0  0  0
 19 18  1  0  0  0  0
 21 25  1  0  0  0  0
 21 20  2  0  0  0  0
 22 21  1  0  0  0  0
 23 22  2  0  0  0  0
 23 24  1  0  0  0  0
 24 19  2  0  0  0  0
 25 26  2  0  0  0  0
 26 27  1  0  0  0  0
 27 32  2  0  0  0  0
 28 29  2  0  0  0  0
 28 27  1  0  0  0  0
 29 30  1  0  0  0  0
 30 31  2  0  0  0  0
 32 31  1  0  0  0  0
M  END
>  <minimizedAffinity>
-8.26232338

$$$$

 OpenBabel12271914423D

 32 35  0  0  1  0  0  0  0  0999 V2000
  -13.6950  -25.6990   -9.4450 C   0  0  1  0  0  0  0  0  0  0  0  0
  -12.4420  -26.2190   -8.8350 N   0  0  0  0  0  0  0  0  0  0  0  0
  -12.6350  -26.8130   -8.0140 H   0  0  0  0  0  0  0  0  0  0  0  0
  -11.8060  -25.4610   -8.5500 H   0  0  0  0  0  0  0  0  0  0  0  0
  -11.9180  -26.7940   -9.5060 H   0  0  0  0  0  0  0  0  0  0  0  0
  -14.4240  -26.7790  -10.2550 C   0  0  0  0  0  0  0  0  0  0  0  0
  -15.7920  -26.4110  -10.7150 C   0  0  0  0  0  0  0  0  0  0  0  0
  -17.0190  -27.0010  -10.3390 C   0  0  0  0  0  0  0  0  0  0  0  0
  -17.3920  -28.0560   -9.4950 C   0  0  0  0  0  0  0  0  0  0  0  0
  -18.7460  -28.3980   -9.3570 C   0  0  0  0  0  0  0  0  0  0  0  0
  -19.7200  -27.7170  -10.0560 C   0  0  0  0  0  0  0  0  0  0  0  0
  -19.3720  -26.6710  -10.9090 C   0  0  0  0  0  0  0  0  0  0  0  0
  -18.0190  -26.3370  -11.0230 C   0  0  0  0  0  0  0  0  0  0  0  0
  -17.4390  -25.3670  -11.8100 N   0  0  0  0  0  0  0  0  0  0  0  0
  -17.9150  -24.7490  -12.4390 H   0  0  0  0  0  0  0  0  0  0  0  0
  -16.0860  -25.4130  -11.6130 C   0  0  0  0  0  0  0  0  0  0  0  0
  -14.5850  -25.0430   -8.3830 C   0  0  0  0  0  0  0  0  0  0  0  0
  -14.6150  -25.8970   -7.2350 O   0  0  0  0  0  0  0  0  0  0  0  0
  -15.7880  -26.0930   -6.5830 C   0  0  0  0  0  0  0  0  0  0  0  0
  -17.0080  -25.5620   -6.9790 C   0  0  0  0  0  0  0  0  0  0  0  0
  -18.1600  -25.8650   -6.2510 C   0  0  0  0  0  0  0  0  0  0  0  0
  -18.0270  -26.6830   -5.1410 C   0  0  0  0  0  0  0  0  0  0  0  0
  -16.8510  -27.1930   -4.7210 N   0  0  0  0  0  0  0  0  0  0  0  0
  -15.7580  -26.8920   -5.4500 C   0  0  0  0  0  0  0  0  0  0  0  0
  -19.4860  -25.3650   -6.6200 C   0  0  0  0  0  0  0  0  0  0  0  0
  -20.4970  -26.1110   -7.0960 C   0  0  0  0  0  0  0  0  0  0  0  0
  -21.8280  -25.6220   -7.4720 C   0  0  0  0  0  0  0  0  0  0  0  0
  -21.9300  -24.7730   -8.5800 C   0  0  0  0  0  0  0  0  0  0  0  0
  -23.1710  -24.3050   -8.9460 C   0  0  0  0  0  0  0  0  0  0  0  0
  -24.2890  -24.6310   -8.2800 N   0  0  0  0  0  0  0  0  0  0  0  0
  -24.1810  -25.4490   -7.2150 C   0  0  0  0  0  0  0  0  0  0  0  0
  -22.9860  -25.9610   -6.7820 C   0  0  0  0  0  0  0  0  0  0  0  0
  1  6  1  1  0  0  0
  1  2  1  0  0  0  0
  1 17  1  0  0  0  0
  2  4  1  0  0  0  0
  2  3  1  0  0  0  0
  5  2  1  0  0  0  0
  7  8  1  0  0  0  0
  7  6  1  0  0  0  0
  8  9  2  0  0  0  0
  9 10  1  0  0  0  0
 11 10  2  0  0  0  0
 12 11  1  0  0  0  0
 13 12  2  0  0  0  0
 13  8  1  0  0  0  0
 14 16  1  0  0  0  0
 14 13  1  0  0  0  0
 15 14  1  0  0  0  0
 16  7  2  0  0  0  0
 17 18  1  0  0  0  0
 18 19  1  0  0  0  0
 19 24  1  0  0  0  0
 20 19  2  0  0  0  0
 20 21  1  0  0  0  0
 21 22  2  0  0  0  0
 22 23  1  0  0  0  0
 24 23  2  0  0  0  0
 25 21  1  0  0  0  0
 26 25  2  0  0  0  0
 27 26  1  0  0  0  0
 27 32  2  0  0  0  0
 28 27  1  0  0  0  0
 29 28  2  0  0  0  0
 29 30  1  0  0  0  0
 30 31  2  0  0  0  0
 31 32  1  0  0  0  0
M  END
>  <minimizedAffinity>
-8.21132565

$$$$

 OpenBabel12271914423D

 32 35  0  0  1  0  0  0  0  0999 V2000
  -20.9890  -26.1020   -7.5040 C   0  0  1  0  0  0  0  0  0  0  0  0
  -20.3790  -26.9100   -8.5940 N   0  0  0  0  0  0  0  0  0  0  0  0
  -20.2700  -26.3610   -9.4610 H   0  0  0  0  0  0  0  0  0  0  0  0
  -20.9300  -27.7530   -8.8070 H   0  0  0  0  0  0  0  0  0  0  0  0
  -19.4430  -27.2400   -8.3280 H   0  0  0  0  0  0  0  0  0  0  0  0
  -19.9810  -25.1210   -6.8910 C   0  0  0  0  0  0  0  0  0  0  0  0
  -18.8370  -25.7540   -6.1760 C   0  0  0  0  0  0  0  0  0  0  0  0
  -17.5000  -25.8720   -6.6180 C   0  0  0  0  0  0  0  0  0  0  0  0
  -16.8040  -25.4990   -7.7760 C   0  0  0  0  0  0  0  0  0  0  0  0
  -15.4370  -25.7920   -7.8960 C   0  0  0  0  0  0  0  0  0  0  0  0
  -14.7680  -26.4590   -6.8920 C   0  0  0  0  0  0  0  0  0  0  0  0
  -15.4420  -26.8490   -5.7360 C   0  0  0  0  0  0  0  0  0  0  0  0
  -16.8000  -26.5370   -5.6290 C   0  0  0  0  0  0  0  0  0  0  0  0
  -17.6700  -26.8340   -4.6040 N   0  0  0  0  0  0  0  0  0  0  0  0
  -17.4510  -27.3390   -3.7660 H   0  0  0  0  0  0  0  0  0  0  0  0
  -18.9050  -26.3500   -4.9400 C   0  0  0  0  0  0  0  0  0  0  0  0
  -22.2730  -25.4180   -7.9880 C   0  0  0  0  0  0  0  0  0  0  0  0
  -22.9710  -24.9180   -6.8440 O   0  0  0  0  0  0  0  0  0  0  0  0
  -24.1380  -25.4990   -6.4700 C   0  0  0  0  0  0  0  0  0  0  0  0
  -24.8910  -25.1160   -5.3700 C   0  0  0  0  0  0  0  0  0  0  0  0
  -26.1000  -25.7620   -5.1030 C   0  0  0  0  0  0  0  0  0  0  0  0
  -26.4900  -26.7820   -5.9570 C   0  0  0  0  0  0  0  0  0  0  0  0
  -25.7660  -27.1890   -7.0200 N   0  0  0  0  0  0  0  0  0  0  0  0
  -24.6090  -26.5390   -7.2570 C   0  0  0  0  0  0  0  0  0  0  0  0
  -26.9630  -25.3980   -3.9780 C   0  0  0  0  0  0  0  0  0  0  0  0
  -26.7200  -24.4170   -3.0930 C   0  0  0  0  0  0  0  0  0  0  0  0
  -27.5750  -24.0450   -1.9600 C   0  0  0  0  0  0  0  0  0  0  0  0
  -27.0830  -23.1130   -1.0400 C   0  0  0  0  0  0  0  0  0  0  0  0
  -27.8720  -22.7540    0.0290 C   0  0  0  0  0  0  0  0  0  0  0  0
  -29.0970  -23.2640    0.2220 N   0  0  0  0  0  0  0  0  0  0  0  0
  -29.5630  -24.1600   -0.6690 C   0  0  0  0  0  0  0  0  0  0  0  0
  -28.8450  -24.5730   -1.7600 C   0  0  0  0  0  0  0  0  0  0  0  0
  1 17  1  6  0  0  0
  1  6  1  0  0  0  0
  2  5  1  0  0  0  0
  2  1  1  0  0  0  0
  3  2  1  0  0  0  0
  4  2  1  0  0  0  0
  6  7  1  0  0  0  0
  7 16  2  0  0  0  0
  8  7  1  0  0  0  0
  8 13  2  0  0  0  0
  9  8  1  0  0  0  0
 10  9  2  0  0  0  0
 10 11  1  0  0  0  0
 11 12  2  0  0  0  0
 12 13  1  0  0  0  0
 13 14  1  0  0  0  0
 14 15  1  0  0  0  0
 16 14  1  0  0  0  0
 17 18  1  0  0  0  0
 18 19  1  0  0  0  0
 19 20  2  0  0  0  0
 20 21  1  0  0  0  0
 21 25  1  0  0  0  0
 22 21  2  0  0  0  0
 23 22  1  0  0  0  0
 24 23  2  0  0  0  0
 24 19  1  0  0  0  0
 25 26  2  0  0  0  0
 26 27  1  0  0  0  0
 27 32  2  0  0  0  0
 27 28  1  0  0  0  0
 28 29  2  0  0  0  0
 29 30  1  0  0  0  0
 31 30  2  0  0  0  0
 32 31  1  0  0  0  0
M  END
>  <minimizedAffinity>
-7.99044943

$$$$

 OpenBabel12271914423D

 32 35  0  0  1  0  0  0  0  0999 V2000
  -25.6540  -26.1610   -3.4710 C   0  0  1  0  0  0  0  0  0  0  0  0
  -24.7200  -25.8070   -2.3680 N   0  0  0  0  0  0  0  0  0  0  0  0
  -24.0030  -25.1330   -2.6770 H   0  0  0  0  0  0  0  0  0  0  0  0
  -24.2470  -26.6350   -1.9800 H   0  0  0  0  0  0  0  0  0  0  0  0
  -25.2240  -25.3720   -1.5860 H   0  0  0  0  0  0  0  0  0  0  0  0
  -26.6640  -25.0370   -3.7430 C   0  0  0  0  0  0  0  0  0  0  0  0
  -27.3750  -24.5210   -2.5400 C   0  0  0  0  0  0  0  0  0  0  0  0
  -27.0930  -23.3470   -1.8070 C   0  0  0  0  0  0  0  0  0  0  0  0
  -26.1330  -22.3290   -1.8970 C   0  0  0  0  0  0  0  0  0  0  0  0
  -26.1320  -21.2820   -0.9640 C   0  0  0  0  0  0  0  0  0  0  0  0
  -27.0570  -21.2470    0.0580 C   0  0  0  0  0  0  0  0  0  0  0  0
  -28.0140  -22.2540    0.1750 C   0  0  0  0  0  0  0  0  0  0  0  0
  -28.0080  -23.2810   -0.7720 C   0  0  0  0  0  0  0  0  0  0  0  0
  -28.8320  -24.3820   -0.8490 N   0  0  0  0  0  0  0  0  0  0  0  0
  -29.5700  -24.6170   -0.2130 H   0  0  0  0  0  0  0  0  0  0  0  0
  -28.4450  -25.1280   -1.9300 C   0  0  0  0  0  0  0  0  0  0  0  0
  -24.8800  -26.5880   -4.7230 C   0  0  0  0  0  0  0  0  0  0  0  0
  -24.8680  -25.4880   -5.6380 O   0  0  0  0  0  0  0  0  0  0  0  0
  -23.9770  -25.4840   -6.6610 C   0  0  0  0  0  0  0  0  0  0  0  0
  -22.6150  -25.7060   -6.5190 C   0  0  0  0  0  0  0  0  0  0  0  0
  -21.7970  -25.7180   -7.6510 C   0  0  0  0  0  0  0  0  0  0  0  0
  -22.3930  -25.4910   -8.8810 C   0  0  0  0  0  0  0  0  0  0  0  0
  -23.7100  -25.2510   -9.0450 N   0  0  0  0  0  0  0  0  0  0  0  0
  -24.4750  -25.2560   -7.9340 C   0  0  0  0  0  0  0  0  0  0  0  0
  -20.3560  -25.9700   -7.5860 C   0  0  0  0  0  0  0  0  0  0  0  0
  -19.5550  -25.6560   -6.5540 C   0  0  0  0  0  0  0  0  0  0  0  0
  -18.1100  -25.9000   -6.4790 C   0  0  0  0  0  0  0  0  0  0  0  0
  -17.2890  -25.3100   -7.4460 C   0  0  0  0  0  0  0  0  0  0  0  0
  -15.9320  -25.5290   -7.3900 C   0  0  0  0  0  0  0  0  0  0  0  0
  -15.3640  -26.2900   -6.4420 N   0  0  0  0  0  0  0  0  0  0  0  0
  -16.1620  -26.8540   -5.5150 C   0  0  0  0  0  0  0  0  0  0  0  0
  -17.5220  -26.6880   -5.4960 C   0  0  0  0  0  0  0  0  0  0  0  0
  1 17  1  6  0  0  0
  1  2  1  0  0  0  0
  2  4  1  0  0  0  0
  2  5  1  0  0  0  0
  3  2  1  0  0  0  0
  6  1  1  0  0  0  0
  6  7  1  0  0  0  0
  7 16  2  0  0  0  0
  7  8  1  0  0  0  0
  8 13  1  0  0  0  0
  9  8  2  0  0  0  0
  9 10  1  0  0  0  0
 10 11  2  0  0  0  0
 11 12  1  0  0  0  0
 13 12  2  0  0  0  0
 14 13  1  0  0  0  0
 14 15  1  0  0  0  0
 16 14  1  0  0  0  0
 18 17  1  0  0  0  0
 19 20  1  0  0  0  0
 19 18  1  0  0  0  0
 21 25  1  0  0  0  0
 21 20  2  0  0  0  0
 22 21  1  0  0  0  0
 23 22  2  0  0  0  0
 23 24  1  0  0  0  0
 24 19  2  0  0  0  0
 25 26  2  0  0  0  0
 26 27  1  0  0  0  0
 27 32  2  0  0  0  0
 28 29  2  0  0  0  0
 28 27  1  0  0  0  0
 29 30  1  0  0  0  0
 30 31  2  0  0  0  0
 31 32  1  0  0  0  0
M  END
>  <minimizedAffinity>
-7.75322104

$$$$

 OpenBabel12271914423D

 32 35  0  0  1  0  0  0  0  0999 V2000
  -13.9210  -25.9090  -12.0190 C   0  0  1  0  0  0  0  0  0  0  0  0
  -12.5510  -25.4690  -12.3960 N   0  0  0  0  0  0  0  0  0  0  0  0
  -12.5680  -24.5940  -12.9420 H   0  0  0  0  0  0  0  0  0  0  0  0
  -12.0500  -26.1850  -12.9400 H   0  0  0  0  0  0  0  0  0  0  0  0
  -11.9790  -25.2910  -11.5610 H   0  0  0  0  0  0  0  0  0  0  0  0
  -14.4910  -25.0680  -10.8680 C   0  0  0  0  0  0  0  0  0  0  0  0
  -14.3340  -25.6630   -9.5120 C   0  0  0  0  0  0  0  0  0  0  0  0
  -15.3190  -25.7960   -8.5070 C   0  0  0  0  0  0  0  0  0  0  0  0
  -16.6710  -25.4460   -8.3940 C   0  0  0  0  0  0  0  0  0  0  0  0
  -17.3700  -25.7230   -7.2090 C   0  0  0  0  0  0  0  0  0  0  0  0
  -16.7370  -26.3230   -6.1410 C   0  0  0  0  0  0  0  0  0  0  0  0
  -15.3890  -26.6700   -6.2260 C   0  0  0  0  0  0  0  0  0  0  0  0
  -14.7140  -26.3990   -7.4200 C   0  0  0  0  0  0  0  0  0  0  0  0
  -13.3920  -26.6290   -7.7280 N   0  0  0  0  0  0  0  0  0  0  0  0
  -12.7010  -27.0270   -7.1210 H   0  0  0  0  0  0  0  0  0  0  0  0
  -13.1700  -26.1850   -9.0040 C   0  0  0  0  0  0  0  0  0  0  0  0
  -14.8380  -25.9450  -13.2460 C   0  0  0  0  0  0  0  0  0  0  0  0
  -15.2470  -27.2990  -13.4600 O   0  0  0  0  0  0  0  0  0  0  0  0
  -16.4430  -27.7160  -12.9770 C   0  0  0  0  0  0  0  0  0  0  0  0
  -17.3470  -26.9050  -12.3040 C   0  0  0  0  0  0  0  0  0  0  0  0
  -18.5690  -27.4350  -11.8850 C   0  0  0  0  0  0  0  0  0  0  0  0
  -18.8200  -28.7710  -12.1540 C   0  0  0  0  0  0  0  0  0  0  0  0
  -17.9510  -29.5870  -12.7860 N   0  0  0  0  0  0  0  0  0  0  0  0
  -16.7840  -29.0430  -13.1870 C   0  0  0  0  0  0  0  0  0  0  0  0
  -19.5840  -26.6380  -11.1940 C   0  0  0  0  0  0  0  0  0  0  0  0
  -19.9480  -26.7830   -9.9090 C   0  0  0  0  0  0  0  0  0  0  0  0
  -20.9660  -25.9930   -9.2060 C   0  0  0  0  0  0  0  0  0  0  0  0
  -21.0100  -26.0670   -7.8100 C   0  0  0  0  0  0  0  0  0  0  0  0
  -21.9590  -25.3330   -7.1350 C   0  0  0  0  0  0  0  0  0  0  0  0
  -22.8440  -24.5470   -7.7670 N   0  0  0  0  0  0  0  0  0  0  0  0
  -22.7930  -24.4820   -9.1110 C   0  0  0  0  0  0  0  0  0  0  0  0
  -21.8820  -25.1780   -9.8600 C   0  0  0  0  0  0  0  0  0  0  0  0
  1 17  1  6  0  0  0
  1  6  1  0  0  0  0
  2  1  1  0  0  0  0
  2  5  1  0  0  0  0
  3  2  1  0  0  0  0
  4  2  1  0  0  0  0
  6  7  1  0  0  0  0
  7 16  2  0  0  0  0
  7  8  1  0  0  0  0
  8  9  2  0  0  0  0
  8 13  1  0  0  0  0
  9 10  1  0  0  0  0
 10 11  2  0  0  0  0
 12 11  1  0  0  0  0
 13 12  2  0  0  0  0
 14 13  1  0  0  0  0
 14 15  1  0  0  0  0
 16 14  1  0  0  0  0
 18 17  1  0  0  0  0
 18 19  1  0  0  0  0
 19 20  1  0  0  0  0
 20 21  2  0  0  0  0
 21 25  1  0  0  0  0
 22 21  1  0  0  0  0
 23 22  2  0  0  0  0
 24 19  2  0  0  0  0
 24 23  1  0  0  0  0
 25 26  2  0  0  0  0
 26 27  1  0  0  0  0
 27 28  1  0  0  0  0
 28 29  2  0  0  0  0
 30 29  1  0  0  0  0
 31 30  2  0  0  0  0
 32 27  2  0  0  0  0
 32 31  1  0  0  0  0
M  END
>  <minimizedAffinity>
-7.71323729

$$$$

 OpenBabel12271914423D

 32 35  0  0  1  0  0  0  0  0999 V2000
  -22.7670  -25.8390   -7.4180 C   0  0  1  0  0  0  0  0  0  0  0  0
  -23.8900  -24.9640   -6.9870 N   0  0  0  0  0  0  0  0  0  0  0  0
  -23.8530  -24.0420   -7.4470 H   0  0  0  0  0  0  0  0  0  0  0  0
  -23.9010  -24.8220   -5.9670 H   0  0  0  0  0  0  0  0  0  0  0  0
  -24.7960  -25.3840   -7.2270 H   0  0  0  0  0  0  0  0  0  0  0  0
  -22.9960  -26.4050   -8.8270 C   0  0  0  0  0  0  0  0  0  0  0  0
  -21.8970  -26.1490   -9.7980 C   0  0  0  0  0  0  0  0  0  0  0  0
  -20.7630  -26.9520  -10.0520 C   0  0  0  0  0  0  0  0  0  0  0  0
  -20.2690  -28.1590   -9.5360 C   0  0  0  0  0  0  0  0  0  0  0  0
  -19.0630  -28.6870  -10.0220 C   0  0  0  0  0  0  0  0  0  0  0  0
  -18.3430  -28.0230  -10.9920 C   0  0  0  0  0  0  0  0  0  0  0  0
  -18.8080  -26.8160  -11.5120 C   0  0  0  0  0  0  0  0  0  0  0  0
  -20.0190  -26.3140  -11.0260 C   0  0  0  0  0  0  0  0  0  0  0  0
  -20.6600  -25.1450  -11.3680 N   0  0  0  0  0  0  0  0  0  0  0  0
  -20.3390  -24.4600  -12.0270 H   0  0  0  0  0  0  0  0  0  0  0  0
  -21.8050  -25.0540  -10.6220 C   0  0  0  0  0  0  0  0  0  0  0  0
  -21.4250  -25.1120   -7.2760 C   0  0  0  0  0  0  0  0  0  0  0  0
  -20.6870  -25.7360   -6.2210 O   0  0  0  0  0  0  0  0  0  0  0  0
  -19.3580  -25.9550   -6.3790 C   0  0  0  0  0  0  0  0  0  0  0  0
  -18.6450  -25.6710   -7.5350 C   0  0  0  0  0  0  0  0  0  0  0  0
  -17.2680  -25.9010   -7.5700 C   0  0  0  0  0  0  0  0  0  0  0  0
  -16.6720  -26.4240   -6.4340 C   0  0  0  0  0  0  0  0  0  0  0  0
  -17.3450  -26.7300   -5.3050 N   0  0  0  0  0  0  0  0  0  0  0  0
  -18.6700  -26.4860   -5.2990 C   0  0  0  0  0  0  0  0  0  0  0  0
  -16.4440  -25.6040   -8.7420 C   0  0  0  0  0  0  0  0  0  0  0  0
  -15.5120  -26.4160   -9.2680 C   0  0  0  0  0  0  0  0  0  0  0  0
  -14.6770  -26.1280  -10.4400 C   0  0  0  0  0  0  0  0  0  0  0  0
  -13.4010  -25.5950  -10.2270 C   0  0  0  0  0  0  0  0  0  0  0  0
  -12.6060  -25.3180  -11.3150 C   0  0  0  0  0  0  0  0  0  0  0  0
  -13.0090  -25.5400  -12.5750 N   0  0  0  0  0  0  0  0  0  0  0  0
  -14.2380  -26.0530  -12.7710 C   0  0  0  0  0  0  0  0  0  0  0  0
  -15.0940  -26.3580  -11.7450 C   0  0  0  0  0  0  0  0  0  0  0  0
  1  6  1  6  0  0  0
  1 17  1  0  0  0  0
  1  2  1  0  0  0  0
  2  4  1  0  0  0  0
  3  2  1  0  0  0  0
  5  2  1  0  0  0  0
  7  6  1  0  0  0  0
  8  7  1  0  0  0  0
  8  9  2  0  0  0  0
 10  9  1  0  0  0  0
 11 10  2  0  0  0  0
 12 13  2  0  0  0  0
 12 11  1  0  0  0  0
 13  8  1  0  0  0  0
 14 13  1  0  0  0  0
 14 16  1  0  0  0  0
 15 14  1  0  0  0  0
 16  7  2  0  0  0  0
 17 18  1  0  0  0  0
 19 18  1  0  0  0  0
 19 24  2  0  0  0  0
 20 19  1  0  0  0  0
 21 20  2  0  0  0  0
 21 22  1  0  0  0  0
 22 23  2  0  0  0  0
 23 24  1  0  0  0  0
 25 21  1  0  0  0  0
 26 25  2  0  0  0  0
 27 28  1  0  0  0  0
 27 26  1  0  0  0  0
 29 28  2  0  0  0  0
 30 29  1  0  0  0  0
 31 30  2  0  0  0  0
 31 32  1  0  0  0  0
 32 27  2  0  0  0  0
M  END
>  <minimizedAffinity>
-7.47404623

$$$$

 OpenBabel12271914423D

 32 35  0  0  1  0  0  0  0  0999 V2000
  -16.3580  -25.4570   -7.9530 C   0  0  1  0  0  0  0  0  0  0  0  0
  -15.5480  -24.2170   -7.8070 N   0  0  0  0  0  0  0  0  0  0  0  0
  -15.9160  -23.4500   -8.3900 H   0  0  0  0  0  0  0  0  0  0  0  0
  -14.5590  -24.3700   -8.0510 H   0  0  0  0  0  0  0  0  0  0  0  0
  -15.5540  -23.8860   -6.8350 H   0  0  0  0  0  0  0  0  0  0  0  0
  -17.6850  -25.3600   -7.1880 C   0  0  0  0  0  0  0  0  0  0  0  0
  -17.6990  -26.0300   -5.8580 C   0  0  0  0  0  0  0  0  0  0  0  0
  -16.6820  -26.8220   -5.2780 C   0  0  0  0  0  0  0  0  0  0  0  0
  -15.4130  -27.2570   -5.6850 C   0  0  0  0  0  0  0  0  0  0  0  0
  -14.6480  -28.0730   -4.8390 C   0  0  0  0  0  0  0  0  0  0  0  0
  -15.1350  -28.4700   -3.6120 C   0  0  0  0  0  0  0  0  0  0  0  0
  -16.3990  -28.0600   -3.1900 C   0  0  0  0  0  0  0  0  0  0  0  0
  -17.1410  -27.2360   -4.0410 C   0  0  0  0  0  0  0  0  0  0  0  0
  -18.4060  -26.7270   -3.8540 N   0  0  0  0  0  0  0  0  0  0  0  0
  -18.9990  -26.8850   -3.0610 H   0  0  0  0  0  0  0  0  0  0  0  0
  -18.7370  -25.9900   -4.9590 C   0  0  0  0  0  0  0  0  0  0  0  0
  -16.5420  -25.8150   -9.4310 C   0  0  0  0  0  0  0  0  0  0  0  0
  -15.4970  -26.7160   -9.8070 O   0  0  0  0  0  0  0  0  0  0  0  0
  -14.5660  -26.3160  -10.7090 C   0  0  0  0  0  0  0  0  0  0  0  0
  -14.6980  -26.4410  -12.0840 C   0  0  0  0  0  0  0  0  0  0  0  0
  -13.6900  -25.9560  -12.9200 C   0  0  0  0  0  0  0  0  0  0  0  0
  -12.5810  -25.3750  -12.3260 C   0  0  0  0  0  0  0  0  0  0  0  0
  -12.4170  -25.2620  -10.9910 N   0  0  0  0  0  0  0  0  0  0  0  0
  -13.4120  -25.7300  -10.2110 C   0  0  0  0  0  0  0  0  0  0  0  0
  -13.7670  -26.0270  -14.3800 C   0  0  0  0  0  0  0  0  0  0  0  0
  -13.5240  -25.0110  -15.2250 C   0  0  0  0  0  0  0  0  0  0  0  0
  -13.6010  -25.0700  -16.6900 C   0  0  0  0  0  0  0  0  0  0  0  0
  -12.5860  -24.4540  -17.4290 C   0  0  0  0  0  0  0  0  0  0  0  0
  -12.6440  -24.4990  -18.8040 C   0  0  0  0  0  0  0  0  0  0  0  0
  -13.6390  -25.1110  -19.4620 N   0  0  0  0  0  0  0  0  0  0  0  0
  -14.6120  -25.7020  -18.7420 C   0  0  0  0  0  0  0  0  0  0  0  0
  -14.6320  -25.7050  -17.3720 C   0  0  0  0  0  0  0  0  0  0  0  0
  1 17  1  6  0  0  0
  1  2  1  0  0  0  0
  1  6  1  0  0  0  0
  2  5  1  0  0  0  0
  3  2  1  0  0  0  0
  4  2  1  0  0  0  0
  6  7  1  0  0  0  0
  7  8  1  0  0  0  0
  7 16  2  0  0  0  0
  8 13  1  0  0  0  0
  9  8  2  0  0  0  0
  9 10  1  0  0  0  0
 10 11  2  0  0  0  0
 11 12  1  0  0  0  0
 13 14  1  0  0  0  0
 13 12  2  0  0  0  0
 14 15  1  0  0  0  0
 16 14  1  0  0  0  0
 18 17  1  0  0  0  0
 19 24  1  0  0  0  0
 19 18  1  0  0  0  0
 20 19  2  0  0  0  0
 21 22  2  0  0  0  0
 21 20  1  0  0  0  0
 22 23  1  0  0  0  0
 23 24  2  0  0  0  0
 25 21  1  0  0  0  0
 26 25  2  0  0  0  0
 27 26  1  0  0  0  0
 28 27  2  0  0  0  0
 29 28  1  0  0  0  0
 30 29  2  0  0  0  0
 30 31  1  0  0  0  0
 31 32  2  0  0  0  0
 32 27  1  0  0  0  0
M  END
>  <minimizedAffinity>
-7.34708738

$$$$
