
 OpenBabel12271914523D

 42 46  0  0  1  0  0  0  0  0999 V2000
  -18.4730  -26.8870   -7.1270 C   0  0  1  0  0  0  0  0  0  0  0  0
  -17.3980  -27.3730   -8.2380 C   0  0  1  0  0  0  0  0  0  0  0  0
  -18.0150  -27.5900   -9.6420 C   0  0  0  0  0  0  0  0  0  0  0  0
  -18.9080  -28.6930   -9.6500 C   0  0  0  0  0  0  0  0  0  0  0  0
  -19.5910  -28.9810  -10.8680 C   0  0  0  0  0  0  0  0  0  0  0  0
  -20.4870  -30.0210  -10.9600 O   0  0  0  0  0  0  0  0  0  0  0  0
  -20.7010  -29.8670  -12.4080 C   0  0  0  0  0  0  0  0  0  0  0  0
  -20.1140  -28.6570  -13.0720 O   0  0  0  0  0  0  0  0  0  0  0  0
  -19.3760  -28.2270  -11.9630 C   0  0  0  0  0  0  0  0  0  0  0  0
  -18.5280  -27.1460  -11.9850 C   0  0  0  0  0  0  0  0  0  0  0  0
  -17.8160  -26.8250  -10.8040 C   0  0  0  0  0  0  0  0  0  0  0  0
  -16.9110  -25.6590  -10.9930 C   0  0  0  0  0  0  0  0  0  0  0  0
  -15.5670  -25.9300  -10.3410 C   0  0  0  0  0  0  0  0  0  0  0  0
  -15.6790  -25.4890   -8.8900 N   0  0  2  0  0  0  0  0  0  0  0  0
  -16.3160  -24.7380   -8.7990 H   0  0  0  0  0  0  0  0  0  0  0  0
  -14.2510  -25.1480   -8.3570 C   0  0  0  0  0  0  0  0  0  0  0  0
  -13.7200  -26.4580   -7.7920 C   0  0  0  0  0  0  0  0  0  0  0  0
  -14.8200  -27.4910   -7.8920 C   0  0  0  0  0  0  0  0  0  0  0  0
  -16.0660  -26.5980   -7.9560 C   0  0  2  0  0  0  0  0  0  0  0  0
  -16.3050  -26.0240   -6.5750 C   0  0  0  0  0  0  0  0  0  0  0  0
  -17.5840  -26.2150   -6.1770 C   0  0  1  0  0  0  0  0  0  0  0  0
  -18.0190  -25.7390   -4.9570 O   0  0  0  0  0  0  0  0  0  0  0  0
  -17.9530  -26.7280   -3.9660 C   0  0  0  0  0  0  0  0  0  0  0  0
  -19.3580  -25.9950   -7.7310 O   0  0  0  0  0  0  0  0  0  0  0  0
  -20.5450  -25.8860   -6.9860 C   0  0  0  0  0  0  0  0  0  0  0  0
  -20.6770  -26.0400   -5.8000 O   0  0  0  0  0  0  0  0  0  0  0  0
  -21.7260  -25.4850   -7.9420 C   0  0  2  0  0  0  0  0  0  0  0  0
  -21.9880  -24.0290   -7.9570 O   0  0  0  0  0  0  0  0  0  0  0  0
  -22.5880  -23.8860   -8.7140 H   0  0  0  0  0  0  0  0  0  0  0  0
  -22.9920  -26.1790   -7.4430 C   0  0  0  0  0  0  0  0  0  0  0  0
  -24.0970  -25.1220   -7.2190 C   0  0  0  0  0  0  0  0  0  0  0  0
  -24.7130  -24.6610   -8.1850 O   0  0  0  0  0  0  0  0  0  0  0  0
  -24.2740  -24.8660   -5.9020 O   0  0  0  0  0  0  0  0  0  0  0  0
  -25.0510  -25.8800   -5.2660 C   0  0  0  0  0  0  0  0  0  0  0  0
  -21.3320  -25.7530   -9.4080 C   0  0  0  0  0  0  0  0  0  0  0  0
  -22.2080  -25.4220  -10.6320 C   0  0  0  0  0  0  0  0  0  0  0  0
  -22.5000  -26.5680  -11.5930 C   0  0  0  0  0  0  0  0  0  0  0  0
  -23.7810  -27.3340  -11.2170 C   0  0  0  0  0  0  0  0  0  0  0  0
  -23.4640  -28.5000  -10.2940 C   0  0  0  0  0  0  0  0  0  0  0  0
  -24.5040  -27.8090  -12.4630 C   0  0  0  0  0  0  0  0  0  0  0  0
  -24.6350  -26.4090  -10.5510 O   0  0  0  0  0  0  0  0  0  0  0  0
  -24.1540  -26.0830   -9.7780 H   0  0  0  0  0  0  0  0  0  0  0  0
  1 24  1  6  0  0  0
  1 21  1  0  0  0  0
  2 19  1  6  0  0  0
  2  1  1  0  0  0  0
  3  2  1  0  0  0  0
  4  3  2  0  0  0  0
  5  4  1  0  0  0  0
  6  5  1  0  0  0  0
  7  6  1  0  0  0  0
  8  7  1  0  0  0  0
  8  9  1  0  0  0  0
  9  5  2  0  0  0  0
 10  9  1  0  0  0  0
 10 11  2  0  0  0  0
 11  3  1  0  0  0  0
 12 11  1  0  0  0  0
 12 13  1  0  0  0  0
 13 14  1  0  0  0  0
 14 15  1  0  0  0  0
 14 16  1  0  0  0  0
 14 19  1  1  0  0  0
 16 17  1  0  0  0  0
 18 17  1  0  0  0  0
 19 18  1  1  0  0  0
 19 20  1  0  0  0  0
 20 21  1  0  0  0  0
 21 22  1  6  0  0  0
 22 23  1  0  0  0  0
 24 25  1  0  0  0  0
 25 26  2  0  0  0  0
 27 35  1  6  0  0  0
 27 30  1  0  0  0  0
 27 25  1  0  0  0  0
 28 27  1  0  0  0  0
 29 28  1  0  0  0  0
 30 31  1  0  0  0  0
 31 33  1  0  0  0  0
 32 31  2  0  0  0  0
 33 34  1  0  0  0  0
 36 35  1  0  0  0  0
 37 38  1  0  0  0  0
 37 36  1  0  0  0  0
 38 41  1  0  0  0  0
 38 39  1  0  0  0  0
 40 38  1  0  0  0  0
 41 42  1  0  0  0  0
M  END
>  <minimizedAffinity>
-8.03510571

$$$$

 OpenBabel12271914523D

 42 46  0  0  1  0  0  0  0  0999 V2000
  -18.5840  -26.8580   -7.3690 C   0  0  1  0  0  0  0  0  0  0  0  0
  -17.3690  -27.3910   -8.2990 C   0  0  1  0  0  0  0  0  0  0  0  0
  -17.7970  -27.7060   -9.7540 C   0  0  0  0  0  0  0  0  0  0  0  0
  -18.6690  -28.8250   -9.8050 C   0  0  0  0  0  0  0  0  0  0  0  0
  -19.1860  -29.2010  -11.0800 C   0  0  0  0  0  0  0  0  0  0  0  0
  -20.0510  -30.2620  -11.2200 O   0  0  0  0  0  0  0  0  0  0  0  0
  -20.0780  -30.2020  -12.6900 C   0  0  0  0  0  0  0  0  0  0  0  0
  -19.4230  -29.0250  -13.3500 O   0  0  0  0  0  0  0  0  0  0  0  0
  -18.8390  -28.5130  -12.1840 C   0  0  0  0  0  0  0  0  0  0  0  0
  -18.0070  -27.4200  -12.1670 C   0  0  0  0  0  0  0  0  0  0  0  0
  -17.4580  -27.0120  -10.9270 C   0  0  0  0  0  0  0  0  0  0  0  0
  -16.5480  -25.8420  -11.0740 C   0  0  0  0  0  0  0  0  0  0  0  0
  -15.2970  -26.0470  -10.2380 C   0  0  0  0  0  0  0  0  0  0  0  0
  -15.6010  -25.5190   -8.8450 N   0  0  2  0  0  0  0  0  0  0  0  0
  -16.2520  -24.7760   -8.8850 H   0  0  0  0  0  0  0  0  0  0  0  0
  -14.2570  -25.1180   -8.1560 C   0  0  0  0  0  0  0  0  0  0  0  0
  -13.7890  -26.3800   -7.4450 C   0  0  0  0  0  0  0  0  0  0  0  0
  -14.8560  -27.4380   -7.6190 C   0  0  0  0  0  0  0  0  0  0  0  0
  -16.0930  -26.5740   -7.8990 C   0  0  2  0  0  0  0  0  0  0  0  0
  -16.5150  -25.9200   -6.6000 C   0  0  0  0  0  0  0  0  0  0  0  0
  -17.8320  -26.1100   -6.3570 C   0  0  1  0  0  0  0  0  0  0  0  0
  -18.4270  -25.5680   -5.2370 O   0  0  0  0  0  0  0  0  0  0  0  0
  -18.4640  -26.4870   -4.1790 C   0  0  0  0  0  0  0  0  0  0  0  0
  -19.3930  -26.0220   -8.1370 O   0  0  0  0  0  0  0  0  0  0  0  0
  -20.7110  -26.0170   -7.6510 C   0  0  0  0  0  0  0  0  0  0  0  0
  -21.0660  -25.9060   -6.5060 O   0  0  0  0  0  0  0  0  0  0  0  0
  -21.7120  -26.1470   -8.8570 C   0  0  2  0  0  0  0  0  0  0  0  0
  -22.4200  -27.4460   -8.8820 O   0  0  0  0  0  0  0  0  0  0  0  0
  -23.1370  -27.3330   -9.5360 H   0  0  0  0  0  0  0  0  0  0  0  0
  -20.9070  -26.0320  -10.1500 C   0  0  0  0  0  0  0  0  0  0  0  0
  -21.8290  -26.3420  -11.3520 C   0  0  0  0  0  0  0  0  0  0  0  0
  -22.1510  -25.4390  -12.1290 O   0  0  0  0  0  0  0  0  0  0  0  0
  -22.1380  -27.6590  -11.4080 O   0  0  0  0  0  0  0  0  0  0  0  0
  -23.1120  -27.9320  -12.4150 C   0  0  0  0  0  0  0  0  0  0  0  0
  -22.8770  -25.1520   -8.6850 C   0  0  0  0  0  0  0  0  0  0  0  0
  -24.2900  -25.5240   -8.1980 C   0  0  0  0  0  0  0  0  0  0  0  0
  -24.5940  -25.2680   -6.7260 C   0  0  0  0  0  0  0  0  0  0  0  0
  -24.6900  -26.5730   -5.9150 C   0  0  0  0  0  0  0  0  0  0  0  0
  -25.2140  -27.7100   -6.7770 C   0  0  0  0  0  0  0  0  0  0  0  0
  -25.5610  -26.3760   -4.6890 C   0  0  0  0  0  0  0  0  0  0  0  0
  -23.3750  -26.8760   -5.4620 O   0  0  0  0  0  0  0  0  0  0  0  0
  -22.8170  -26.9640   -6.2470 H   0  0  0  0  0  0  0  0  0  0  0  0
  1 24  1  6  0  0  0
  1 21  1  0  0  0  0
  2 19  1  6  0  0  0
  2  1  1  0  0  0  0
  3  2  1  0  0  0  0
  4  3  2  0  0  0  0
  5  4  1  0  0  0  0
  6  5  1  0  0  0  0
  7  6  1  0  0  0  0
  8  7  1  0  0  0  0
  8  9  1  0  0  0  0
  9 10  1  0  0  0  0
  9  5  2  0  0  0  0
 10 11  2  0  0  0  0
 11  3  1  0  0  0  0
 12 11  1  0  0  0  0
 12 13  1  0  0  0  0
 13 14  1  0  0  0  0
 14 16  1  0  0  0  0
 14 19  1  1  0  0  0
 15 14  1  0  0  0  0
 16 17  1  0  0  0  0
 18 17  1  0  0  0  0
 19 18  1  1  0  0  0
 19 20  1  0  0  0  0
 20 21  1  0  0  0  0
 21 22  1  6  0  0  0
 22 23  1  0  0  0  0
 24 25  1  0  0  0  0
 25 26  2  0  0  0  0
 27 30  1  6  0  0  0
 27 35  1  0  0  0  0
 27 25  1  0  0  0  0
 28 27  1  0  0  0  0
 29 28  1  0  0  0  0
 31 30  1  0  0  0  0
 32 31  2  0  0  0  0
 33 31  1  0  0  0  0
 34 33  1  0  0  0  0
 35 36  1  0  0  0  0
 36 37  1  0  0  0  0
 37 38  1  0  0  0  0
 38 41  1  0  0  0  0
 38 40  1  0  0  0  0
 39 38  1  0  0  0  0
 42 41  1  0  0  0  0
M  END
>  <minimizedAffinity>
-7.97933865

$$$$

 OpenBabel12271914523D

 42 46  0  0  1  0  0  0  0  0999 V2000
  -18.5490  -27.3890   -8.7470 C   0  0  1  0  0  0  0  0  0  0  0  0
  -17.0320  -27.5280   -9.3020 C   0  0  1  0  0  0  0  0  0  0  0  0
  -16.9430  -27.6010  -10.8470 C   0  0  0  0  0  0  0  0  0  0  0  0
  -17.5080  -28.8060  -11.3400 C   0  0  0  0  0  0  0  0  0  0  0  0
  -17.5410  -28.9890  -12.7540 C   0  0  0  0  0  0  0  0  0  0  0  0
  -18.0860  -30.1190  -13.3200 O   0  0  0  0  0  0  0  0  0  0  0  0
  -17.6960  -29.7650  -14.6940 C   0  0  0  0  0  0  0  0  0  0  0  0
  -17.1410  -28.3910  -14.9270 O   0  0  0  0  0  0  0  0  0  0  0  0
  -17.0420  -28.0440  -13.5740 C   0  0  0  0  0  0  0  0  0  0  0  0
  -16.5000  -26.8630  -13.1290 C   0  0  0  0  0  0  0  0  0  0  0  0
  -16.4320  -26.6380  -11.7320 C   0  0  0  0  0  0  0  0  0  0  0  0
  -15.7860  -25.3370  -11.4040 C   0  0  0  0  0  0  0  0  0  0  0  0
  -14.8170  -25.5130  -10.2470 C   0  0  0  0  0  0  0  0  0  0  0  0
  -15.6170  -25.3340   -8.9660 N   0  0  2  0  0  0  0  0  0  0  0  0
  -16.3690  -24.7080   -9.1060 H   0  0  0  0  0  0  0  0  0  0  0  0
  -14.6460  -24.8800   -7.8290 C   0  0  0  0  0  0  0  0  0  0  0  0
  -14.1510  -26.1740   -7.1970 C   0  0  0  0  0  0  0  0  0  0  0  0
  -14.8740  -27.3250   -7.8600 C   0  0  0  0  0  0  0  0  0  0  0  0
  -16.1290  -26.6230   -8.3960 C   0  0  2  0  0  0  0  0  0  0  0  0
  -17.0370  -26.3210   -7.2220 C   0  0  0  0  0  0  0  0  0  0  0  0
  -18.2980  -26.7580   -7.4490 C   0  0  1  0  0  0  0  0  0  0  0  0
  -19.2920  -26.5550   -6.5150 O   0  0  0  0  0  0  0  0  0  0  0  0
  -18.7610  -26.1850   -5.2710 C   0  0  0  0  0  0  0  0  0  0  0  0
  -19.2570  -26.5490   -9.6050 O   0  0  0  0  0  0  0  0  0  0  0  0
  -20.5020  -27.1090   -9.9390 C   0  0  0  0  0  0  0  0  0  0  0  0
  -20.7730  -28.2770  -10.0360 O   0  0  0  0  0  0  0  0  0  0  0  0
  -21.5520  -25.9580  -10.1460 C   0  0  2  0  0  0  0  0  0  0  0  0
  -21.0800  -24.9040  -11.0700 O   0  0  0  0  0  0  0  0  0  0  0  0
  -21.8710  -24.3660  -11.2690 H   0  0  0  0  0  0  0  0  0  0  0  0
  -21.8070  -25.3050   -8.7880 C   0  0  0  0  0  0  0  0  0  0  0  0
  -22.8630  -24.1870   -8.9520 C   0  0  0  0  0  0  0  0  0  0  0  0
  -22.5630  -23.1380   -9.5290 O   0  0  0  0  0  0  0  0  0  0  0  0
  -24.0600  -24.5630   -8.4440 O   0  0  0  0  0  0  0  0  0  0  0  0
  -23.9090  -25.4350   -7.3240 C   0  0  0  0  0  0  0  0  0  0  0  0
  -22.7900  -26.5000  -10.8870 C   0  0  0  0  0  0  0  0  0  0  0  0
  -22.8770  -26.7330  -12.4070 C   0  0  0  0  0  0  0  0  0  0  0  0
  -22.8900  -28.1830  -12.8760 C   0  0  0  0  0  0  0  0  0  0  0  0
  -21.5510  -28.6050  -13.5080 C   0  0  0  0  0  0  0  0  0  0  0  0
  -20.6610  -27.3960  -13.7480 C   0  0  0  0  0  0  0  0  0  0  0  0
  -21.7860  -29.3690  -14.7970 C   0  0  0  0  0  0  0  0  0  0  0  0
  -20.9230  -29.4930  -12.5900 O   0  0  0  0  0  0  0  0  0  0  0  0
  -20.8090  -29.0120  -11.7590 H   0  0  0  0  0  0  0  0  0  0  0  0
  1 24  1  6  0  0  0
  1 21  1  0  0  0  0
  2  1  1  0  0  0  0
  2 19  1  6  0  0  0
  3  2  1  0  0  0  0
  4  3  2  0  0  0  0
  5  4  1  0  0  0  0
  6  5  1  0  0  0  0
  7  6  1  0  0  0  0
  8  7  1  0  0  0  0
  8  9  1  0  0  0  0
  9 10  1  0  0  0  0
  9  5  2  0  0  0  0
 10 11  2  0  0  0  0
 11 12  1  0  0  0  0
 11  3  1  0  0  0  0
 12 13  1  0  0  0  0
 13 14  1  0  0  0  0
 14 19  1  1  0  0  0
 14 16  1  0  0  0  0
 15 14  1  0  0  0  0
 16 17  1  0  0  0  0
 18 17  1  0  0  0  0
 19 18  1  1  0  0  0
 19 20  1  0  0  0  0
 21 20  1  0  0  0  0
 21 22  1  6  0  0  0
 22 23  1  0  0  0  0
 25 24  1  0  0  0  0
 26 25  2  0  0  0  0
 27 35  1  6  0  0  0
 27 25  1  0  0  0  0
 27 30  1  0  0  0  0
 28 27  1  0  0  0  0
 29 28  1  0  0  0  0
 31 30  1  0  0  0  0
 31 33  1  0  0  0  0
 32 31  2  0  0  0  0
 33 34  1  0  0  0  0
 36 35  1  0  0  0  0
 37 36  1  0  0  0  0
 38 37  1  0  0  0  0
 38 41  1  0  0  0  0
 39 38  1  0  0  0  0
 40 38  1  0  0  0  0
 41 42  1  0  0  0  0
M  END
>  <minimizedAffinity>
-7.94383287

$$$$

 OpenBabel12271914523D

 42 46  0  0  1  0  0  0  0  0999 V2000
  -16.2260  -26.7330  -12.1100 C   0  0  1  0  0  0  0  0  0  0  0  0
  -16.6250  -26.1430  -10.6540 C   0  0  1  0  0  0  0  0  0  0  0  0
  -18.0900  -26.4400  -10.2470 C   0  0  0  0  0  0  0  0  0  0  0  0
  -19.0070  -25.7350  -11.0690 C   0  0  0  0  0  0  0  0  0  0  0  0
  -20.3990  -25.9510  -10.8420 C   0  0  0  0  0  0  0  0  0  0  0  0
  -21.3570  -25.3230  -11.6030 O   0  0  0  0  0  0  0  0  0  0  0  0
  -22.4900  -25.8300  -10.8120 C   0  0  0  0  0  0  0  0  0  0  0  0
  -22.2000  -26.8730   -9.7730 O   0  0  0  0  0  0  0  0  0  0  0  0
  -20.8060  -26.7910   -9.8710 C   0  0  0  0  0  0  0  0  0  0  0  0
  -19.9440  -27.4950   -9.0660 C   0  0  0  0  0  0  0  0  0  0  0  0
  -18.5520  -27.3070   -9.2440 C   0  0  0  0  0  0  0  0  0  0  0  0
  -17.7490  -28.1060   -8.2770 C   0  0  0  0  0  0  0  0  0  0  0  0
  -16.6130  -27.2640   -7.7220 C   0  0  0  0  0  0  0  0  0  0  0  0
  -15.4400  -27.4140   -8.6770 N   0  0  2  0  0  0  0  0  0  0  0  0
  -15.4500  -28.3020   -9.1100 H   0  0  0  0  0  0  0  0  0  0  0  0
  -14.1170  -27.1290   -7.8960 C   0  0  0  0  0  0  0  0  0  0  0  0
  -13.8900  -25.6310   -8.0420 C   0  0  0  0  0  0  0  0  0  0  0  0
  -14.9660  -25.0810   -8.9510 C   0  0  0  0  0  0  0  0  0  0  0  0
  -15.3800  -26.3410   -9.7240 C   0  0  2  0  0  0  0  0  0  0  0  0
  -14.2790  -26.6700  -10.7110 C   0  0  0  0  0  0  0  0  0  0  0  0
  -14.7740  -26.8530  -11.9570 C   0  0  1  0  0  0  0  0  0  0  0  0
  -13.9400  -27.1920  -13.0020 O   0  0  0  0  0  0  0  0  0  0  0  0
  -13.9110  -26.1910  -13.9830 C   0  0  0  0  0  0  0  0  0  0  0  0
  -16.8370  -27.9760  -12.2640 O   0  0  0  0  0  0  0  0  0  0  0  0
  -17.4770  -28.0680  -13.5120 C   0  0  0  0  0  0  0  0  0  0  0  0
  -17.3340  -27.3410  -14.4600 O   0  0  0  0  0  0  0  0  0  0  0  0
  -18.4230  -29.3240  -13.5210 C   0  0  2  0  0  0  0  0  0  0  0  0
  -17.6860  -30.6030  -13.4240 O   0  0  0  0  0  0  0  0  0  0  0  0
  -18.3690  -31.2770  -13.2410 H   0  0  0  0  0  0  0  0  0  0  0  0
  -19.1870  -29.3270  -14.8440 C   0  0  0  0  0  0  0  0  0  0  0  0
  -19.0410  -30.7140  -15.5120 C   0  0  0  0  0  0  0  0  0  0  0  0
  -19.8560  -31.6060  -15.2610 O   0  0  0  0  0  0  0  0  0  0  0  0
  -17.9920  -30.7400  -16.3680 O   0  0  0  0  0  0  0  0  0  0  0  0
  -18.0000  -29.6160  -17.2470 C   0  0  0  0  0  0  0  0  0  0  0  0
  -19.2780  -29.3500  -12.2380 C   0  0  0  0  0  0  0  0  0  0  0  0
  -20.5540  -30.1910  -12.0450 C   0  0  0  0  0  0  0  0  0  0  0  0
  -21.8830  -29.4650  -12.2140 C   0  0  0  0  0  0  0  0  0  0  0  0
  -22.9720  -30.0130  -11.2740 C   0  0  0  0  0  0  0  0  0  0  0  0
  -23.2070  -31.4940  -11.5210 C   0  0  0  0  0  0  0  0  0  0  0  0
  -24.2590  -29.2260  -11.4320 C   0  0  0  0  0  0  0  0  0  0  0  0
  -22.5070  -29.8130   -9.9430 O   0  0  0  0  0  0  0  0  0  0  0  0
  -21.6680  -30.2870   -9.8600 H   0  0  0  0  0  0  0  0  0  0  0  0
  1 24  1  1  0  0  0
  1 21  1  0  0  0  0
  1  2  1  0  0  0  0
  2  3  1  0  0  0  0
  2 19  1  1  0  0  0
  3 11  1  0  0  0  0
  4  5  1  0  0  0  0
  4  3  2  0  0  0  0
  5  9  2  0  0  0  0
  6  5  1  0  0  0  0
  6  7  1  0  0  0  0
  7  8  1  0  0  0  0
  9  8  1  0  0  0  0
  9 10  1  0  0  0  0
 11 10  2  0  0  0  0
 11 12  1  0  0  0  0
 12 13  1  0  0  0  0
 14 19  1  6  0  0  0
 14 16  1  0  0  0  0
 14 13  1  0  0  0  0
 15 14  1  0  0  0  0
 17 16  1  0  0  0  0
 18 17  1  0  0  0  0
 19 20  1  6  0  0  0
 19 18  1  0  0  0  0
 21 22  1  1  0  0  0
 21 20  1  0  0  0  0
 23 22  1  0  0  0  0
 25 24  1  0  0  0  0
 26 25  2  0  0  0  0
 27 30  1  6  0  0  0
 27 25  1  0  0  0  0
 27 28  1  0  0  0  0
 27 35  1  0  0  0  0
 28 29  1  0  0  0  0
 31 32  2  0  0  0  0
 31 30  1  0  0  0  0
 33 31  1  0  0  0  0
 34 33  1  0  0  0  0
 35 36  1  0  0  0  0
 37 36  1  0  0  0  0
 37 38  1  0  0  0  0
 38 41  1  0  0  0  0
 39 38  1  0  0  0  0
 40 38  1  0  0  0  0
 41 42  1  0  0  0  0
M  END
>  <minimizedAffinity>
-7.79028416

$$$$

 OpenBabel12271914523D

 42 46  0  0  1  0  0  0  0  0999 V2000
  -16.0740  -25.9620  -11.8730 C   0  0  1  0  0  0  0  0  0  0  0  0
  -16.8150  -25.8380  -10.4360 C   0  0  1  0  0  0  0  0  0  0  0  0
  -18.2270  -26.4730  -10.4120 C   0  0  0  0  0  0  0  0  0  0  0  0
  -19.1330  -25.7490  -11.2300 C   0  0  0  0  0  0  0  0  0  0  0  0
  -20.4640  -26.2480  -11.3450 C   0  0  0  0  0  0  0  0  0  0  0  0
  -21.4020  -25.6190  -12.1300 O   0  0  0  0  0  0  0  0  0  0  0  0
  -22.5100  -26.4960  -11.7180 C   0  0  0  0  0  0  0  0  0  0  0  0
  -22.1720  -27.7040  -10.8960 O   0  0  0  0  0  0  0  0  0  0  0  0
  -20.8300  -27.3640  -10.6850 C   0  0  0  0  0  0  0  0  0  0  0  0
  -19.9750  -28.0930   -9.8950 C   0  0  0  0  0  0  0  0  0  0  0  0
  -18.6450  -27.6330   -9.7390 C   0  0  0  0  0  0  0  0  0  0  0  0
  -17.8530  -28.5030   -8.8260 C   0  0  0  0  0  0  0  0  0  0  0  0
  -17.0260  -27.6500   -7.8800 C   0  0  0  0  0  0  0  0  0  0  0  0
  -15.7120  -27.3500   -8.5850 N   0  0  2  0  0  0  0  0  0  0  0  0
  -15.4640  -28.0880   -9.1940 H   0  0  0  0  0  0  0  0  0  0  0  0
  -14.6210  -27.0540   -7.5070 C   0  0  0  0  0  0  0  0  0  0  0  0
  -14.6990  -25.5520   -7.2720 C   0  0  0  0  0  0  0  0  0  0  0  0
  -15.7110  -24.9790   -8.2400 C   0  0  0  0  0  0  0  0  0  0  0  0
  -15.7190  -26.0520   -9.3370 C   0  0  2  0  0  0  0  0  0  0  0  0
  -14.4320  -25.9280  -10.1250 C   0  0  0  0  0  0  0  0  0  0  0  0
  -14.6730  -25.8680  -11.4550 C   0  0  1  0  0  0  0  0  0  0  0  0
  -13.6310  -25.7840  -12.3560 O   0  0  0  0  0  0  0  0  0  0  0  0
  -12.5330  -25.1050  -11.8100 C   0  0  0  0  0  0  0  0  0  0  0  0
  -16.3730  -27.2100  -12.4160 O   0  0  0  0  0  0  0  0  0  0  0  0
  -16.5580  -27.1190  -13.8060 C   0  0  0  0  0  0  0  0  0  0  0  0
  -16.5590  -26.1210  -14.4780 O   0  0  0  0  0  0  0  0  0  0  0  0
  -16.7370  -28.5620  -14.4030 C   0  0  2  0  0  0  0  0  0  0  0  0
  -17.6130  -28.5890  -15.5960 O   0  0  0  0  0  0  0  0  0  0  0  0
  -17.4890  -29.4780  -15.9830 H   0  0  0  0  0  0  0  0  0  0  0  0
  -17.3860  -29.4370  -13.3320 C   0  0  0  0  0  0  0  0  0  0  0  0
  -18.8140  -29.8200  -13.7840 C   0  0  0  0  0  0  0  0  0  0  0  0
  -19.0140  -30.9050  -14.3360 O   0  0  0  0  0  0  0  0  0  0  0  0
  -19.7100  -28.8620  -13.4470 O   0  0  0  0  0  0  0  0  0  0  0  0
  -20.9140  -28.9730  -14.2050 C   0  0  0  0  0  0  0  0  0  0  0  0
  -15.3990  -29.0660  -14.9790 C   0  0  0  0  0  0  0  0  0  0  0  0
  -14.0120  -28.5140  -14.5980 C   0  0  0  0  0  0  0  0  0  0  0  0
  -13.0580  -28.2120  -15.7480 C   0  0  0  0  0  0  0  0  0  0  0  0
  -13.1650  -26.7530  -16.2280 C   0  0  0  0  0  0  0  0  0  0  0  0
  -14.1790  -26.6260  -17.3540 C   0  0  0  0  0  0  0  0  0  0  0  0
  -11.8070  -26.2320  -16.6610 C   0  0  0  0  0  0  0  0  0  0  0  0
  -13.5850  -25.9790  -15.1090 O   0  0  0  0  0  0  0  0  0  0  0  0
  -14.4330  -26.3400  -14.8160 H   0  0  0  0  0  0  0  0  0  0  0  0
  1 24  1  1  0  0  0
  1 21  1  0  0  0  0
  1  2  1  0  0  0  0
  2  3  1  0  0  0  0
  2 19  1  1  0  0  0
  3 11  1  0  0  0  0
  4  3  2  0  0  0  0
  5  4  1  0  0  0  0
  5  9  2  0  0  0  0
  6  7  1  0  0  0  0
  6  5  1  0  0  0  0
  7  8  1  0  0  0  0
  8  9  1  0  0  0  0
  9 10  1  0  0  0  0
 10 11  2  0  0  0  0
 11 12  1  0  0  0  0
 12 13  1  0  0  0  0
 14 19  1  6  0  0  0
 14 13  1  0  0  0  0
 14 16  1  0  0  0  0
 15 14  1  0  0  0  0
 16 17  1  0  0  0  0
 18 17  1  0  0  0  0
 19 20  1  6  0  0  0
 19 18  1  0  0  0  0
 21 22  1  6  0  0  0
 21 20  1  0  0  0  0
 22 23  1  0  0  0  0
 25 24  1  0  0  0  0
 26 25  2  0  0  0  0
 27 35  1  6  0  0  0
 27 25  1  0  0  0  0
 27 30  1  0  0  0  0
 28 27  1  0  0  0  0
 29 28  1  0  0  0  0
 31 33  1  0  0  0  0
 31 30  1  0  0  0  0
 32 31  2  0  0  0  0
 34 33  1  0  0  0  0
 35 36  1  0  0  0  0
 37 36  1  0  0  0  0
 38 37  1  0  0  0  0
 38 41  1  0  0  0  0
 39 38  1  0  0  0  0
 40 38  1  0  0  0  0
 41 42  1  0  0  0  0
M  END
>  <minimizedAffinity>
-7.76090002

$$$$

 OpenBabel12271914523D

 42 46  0  0  1  0  0  0  0  0999 V2000
  -18.6770  -27.3730   -8.7780 C   0  0  1  0  0  0  0  0  0  0  0  0
  -17.1670  -27.5090   -9.3520 C   0  0  1  0  0  0  0  0  0  0  0  0
  -17.0960  -27.5720  -10.8980 C   0  0  0  0  0  0  0  0  0  0  0  0
  -17.6670  -28.7740  -11.3920 C   0  0  0  0  0  0  0  0  0  0  0  0
  -17.7180  -28.9480  -12.8070 C   0  0  0  0  0  0  0  0  0  0  0  0
  -18.2690  -30.0740  -13.3730 O   0  0  0  0  0  0  0  0  0  0  0  0
  -17.8960  -29.7110  -14.7500 C   0  0  0  0  0  0  0  0  0  0  0  0
  -17.3430  -28.3360  -14.9810 O   0  0  0  0  0  0  0  0  0  0  0  0
  -17.2280  -27.9980  -13.6270 C   0  0  0  0  0  0  0  0  0  0  0  0
  -16.6800  -26.8200  -13.1810 C   0  0  0  0  0  0  0  0  0  0  0  0
  -16.5960  -26.6040  -11.7840 C   0  0  0  0  0  0  0  0  0  0  0  0
  -15.9450  -25.3050  -11.4540 C   0  0  0  0  0  0  0  0  0  0  0  0
  -14.9630  -25.4890  -10.3110 C   0  0  0  0  0  0  0  0  0  0  0  0
  -15.7470  -25.3180   -9.0190 N   0  0  2  0  0  0  0  0  0  0  0  0
  -16.5010  -24.6910   -9.1460 H   0  0  0  0  0  0  0  0  0  0  0  0
  -14.7630  -24.8720   -7.8900 C   0  0  0  0  0  0  0  0  0  0  0  0
  -14.2600  -26.1690   -7.2730 C   0  0  0  0  0  0  0  0  0  0  0  0
  -14.9920  -27.3160   -7.9340 C   0  0  0  0  0  0  0  0  0  0  0  0
  -16.2530  -26.6110   -8.4510 C   0  0  2  0  0  0  0  0  0  0  0  0
  -17.1470  -26.3160   -7.2640 C   0  0  0  0  0  0  0  0  0  0  0  0
  -18.4100  -26.7500   -7.4790 C   0  0  1  0  0  0  0  0  0  0  0  0
  -19.3930  -26.5530   -6.5320 O   0  0  0  0  0  0  0  0  0  0  0  0
  -18.8520  -26.1370   -5.3080 C   0  0  0  0  0  0  0  0  0  0  0  0
  -19.3950  -26.5280   -9.6230 O   0  0  0  0  0  0  0  0  0  0  0  0
  -20.6280  -27.1020   -9.9750 C   0  0  0  0  0  0  0  0  0  0  0  0
  -21.0960  -28.1320   -9.5670 O   0  0  0  0  0  0  0  0  0  0  0  0
  -21.3690  -26.1600  -10.9930 C   0  0  2  0  0  0  0  0  0  0  0  0
  -22.7180  -26.6490  -11.3550 O   0  0  0  0  0  0  0  0  0  0  0  0
  -23.1430  -25.9020  -11.8200 H   0  0  0  0  0  0  0  0  0  0  0  0
  -20.5370  -26.1030  -12.2720 C   0  0  0  0  0  0  0  0  0  0  0  0
  -21.3240  -26.7740  -13.4210 C   0  0  0  0  0  0  0  0  0  0  0  0
  -22.1330  -26.1140  -14.0800 O   0  0  0  0  0  0  0  0  0  0  0  0
  -20.9570  -28.0670  -13.5800 O   0  0  0  0  0  0  0  0  0  0  0  0
  -22.0330  -28.8670  -14.0670 C   0  0  0  0  0  0  0  0  0  0  0  0
  -21.6890  -24.8080  -10.3250 C   0  0  0  0  0  0  0  0  0  0  0  0
  -22.2940  -24.6400   -8.9180 C   0  0  0  0  0  0  0  0  0  0  0  0
  -23.7620  -25.0170   -8.7560 C   0  0  0  0  0  0  0  0  0  0  0  0
  -23.9590  -26.1900   -7.7790 C   0  0  0  0  0  0  0  0  0  0  0  0
  -25.3730  -26.1970   -7.2190 C   0  0  0  0  0  0  0  0  0  0  0  0
  -22.9340  -26.1340   -6.6620 C   0  0  0  0  0  0  0  0  0  0  0  0
  -23.7260  -27.3860   -8.5160 O   0  0  0  0  0  0  0  0  0  0  0  0
  -24.3580  -27.3980   -9.2470 H   0  0  0  0  0  0  0  0  0  0  0  0
  1 24  1  6  0  0  0
  1 21  1  0  0  0  0
  2  1  1  0  0  0  0
  2 19  1  6  0  0  0
  3  2  1  0  0  0  0
  4  3  2  0  0  0  0
  5  4  1  0  0  0  0
  6  5  1  0  0  0  0
  7  6  1  0  0  0  0
  8  7  1  0  0  0  0
  8  9  1  0  0  0  0
  9 10  1  0  0  0  0
  9  5  2  0  0  0  0
 10 11  2  0  0  0  0
 11 12  1  0  0  0  0
 11  3  1  0  0  0  0
 12 13  1  0  0  0  0
 13 14  1  0  0  0  0
 14 19  1  1  0  0  0
 14 16  1  0  0  0  0
 15 14  1  0  0  0  0
 16 17  1  0  0  0  0
 18 17  1  0  0  0  0
 19 18  1  1  0  0  0
 19 20  1  0  0  0  0
 21 20  1  0  0  0  0
 21 22  1  6  0  0  0
 22 23  1  0  0  0  0
 25 24  1  0  0  0  0
 25 26  2  0  0  0  0
 27 30  1  6  0  0  0
 27 35  1  0  0  0  0
 27 25  1  0  0  0  0
 28 27  1  0  0  0  0
 29 28  1  0  0  0  0
 31 30  1  0  0  0  0
 32 31  2  0  0  0  0
 33 31  1  0  0  0  0
 34 33  1  0  0  0  0
 35 36  1  0  0  0  0
 36 37  1  0  0  0  0
 37 38  1  0  0  0  0
 38 39  1  0  0  0  0
 38 40  1  0  0  0  0
 41 38  1  0  0  0  0
 42 41  1  0  0  0  0
M  END
>  <minimizedAffinity>
-7.57822323

$$$$

 OpenBabel12271914523D

 42 46  0  0  1  0  0  0  0  0999 V2000
  -20.2640  -26.1220  -12.5850 C   0  0  1  0  0  0  0  0  0  0  0  0
  -18.9410  -26.8330  -13.1940 C   0  0  1  0  0  0  0  0  0  0  0  0
  -17.8210  -27.0540  -12.1470 C   0  0  0  0  0  0  0  0  0  0  0  0
  -17.2710  -25.8210  -11.7110 C   0  0  0  0  0  0  0  0  0  0  0  0
  -16.2600  -25.8670  -10.7060 C   0  0  0  0  0  0  0  0  0  0  0  0
  -15.6840  -24.7190  -10.2130 O   0  0  0  0  0  0  0  0  0  0  0  0
  -14.6970  -25.4270   -9.3830 C   0  0  0  0  0  0  0  0  0  0  0  0
  -14.8420  -26.9140   -9.2460 O   0  0  0  0  0  0  0  0  0  0  0  0
  -15.8500  -27.0490  -10.2090 C   0  0  0  0  0  0  0  0  0  0  0  0
  -16.3690  -28.2590  -10.6020 C   0  0  0  0  0  0  0  0  0  0  0  0
  -17.3680  -28.2680  -11.6060 C   0  0  0  0  0  0  0  0  0  0  0  0
  -17.8030  -29.6490  -11.9520 C   0  0  0  0  0  0  0  0  0  0  0  0
  -17.9300  -29.7940  -13.4590 C   0  0  0  0  0  0  0  0  0  0  0  0
  -19.3390  -29.3560  -13.8300 N   0  0  2  0  0  0  0  0  0  0  0  0
  -19.9710  -29.5450  -13.0950 H   0  0  0  0  0  0  0  0  0  0  0  0
  -19.7400  -30.0440  -15.1750 C   0  0  0  0  0  0  0  0  0  0  0  0
  -19.2820  -29.0800  -16.2600 C   0  0  0  0  0  0  0  0  0  0  0  0
  -18.7370  -27.8410  -15.5860 C   0  0  0  0  0  0  0  0  0  0  0  0
  -19.4320  -27.9110  -14.2200 C   0  0  2  0  0  0  0  0  0  0  0  0
  -20.8880  -27.5410  -14.4140 C   0  0  0  0  0  0  0  0  0  0  0  0
  -21.2750  -26.5850  -13.5390 C   0  0  1  0  0  0  0  0  0  0  0  0
  -22.5760  -26.1260  -13.5280 O   0  0  0  0  0  0  0  0  0  0  0  0
  -23.4940  -27.1840  -13.4670 C   0  0  0  0  0  0  0  0  0  0  0  0
  -20.4870  -26.6280  -11.3050 O   0  0  0  0  0  0  0  0  0  0  0  0
  -21.1600  -25.6890  -10.5060 C   0  0  0  0  0  0  0  0  0  0  0  0
  -21.6260  -24.6360  -10.8540 O   0  0  0  0  0  0  0  0  0  0  0  0
  -21.2590  -26.2330   -9.0340 C   0  0  2  0  0  0  0  0  0  0  0  0
  -22.3230  -27.2470   -8.8640 O   0  0  0  0  0  0  0  0  0  0  0  0
  -22.1590  -27.6430   -7.9860 H   0  0  0  0  0  0  0  0  0  0  0  0
  -21.5880  -25.0550   -8.1190 C   0  0  0  0  0  0  0  0  0  0  0  0
  -22.9630  -25.2970   -7.4540 C   0  0  0  0  0  0  0  0  0  0  0  0
  -23.9880  -24.8580   -7.9830 O   0  0  0  0  0  0  0  0  0  0  0  0
  -22.8420  -26.0440   -6.3310 O   0  0  0  0  0  0  0  0  0  0  0  0
  -24.0990  -26.5680   -5.9050 C   0  0  0  0  0  0  0  0  0  0  0  0
  -19.9920  -27.0380   -8.6830 C   0  0  0  0  0  0  0  0  0  0  0  0
  -18.6530  -26.4240   -8.2330 C   0  0  0  0  0  0  0  0  0  0  0  0
  -17.8850  -27.1770   -7.1530 C   0  0  0  0  0  0  0  0  0  0  0  0
  -17.1700  -26.2270   -6.1750 C   0  0  0  0  0  0  0  0  0  0  0  0
  -17.1490  -24.8070   -6.7170 C   0  0  0  0  0  0  0  0  0  0  0  0
  -15.7630  -26.7170   -5.8870 C   0  0  0  0  0  0  0  0  0  0  0  0
  -17.8970  -26.2670   -4.9530 O   0  0  0  0  0  0  0  0  0  0  0  0
  -18.8020  -25.9890   -5.1500 H   0  0  0  0  0  0  0  0  0  0  0  0
  1 24  1  1  0  0  0
  2 19  1  1  0  0  0
  2  1  1  0  0  0  0
  2  3  1  0  0  0  0
  3  4  2  0  0  0  0
  3 11  1  0  0  0  0
  4  5  1  0  0  0  0
  5  6  1  0  0  0  0
  5  9  2  0  0  0  0
  6  7  1  0  0  0  0
  7  8  1  0  0  0  0
  9  8  1  0  0  0  0
 10  9  1  0  0  0  0
 11 10  2  0  0  0  0
 12 11  1  0  0  0  0
 13 12  1  0  0  0  0
 14 19  1  6  0  0  0
 14 13  1  0  0  0  0
 14 15  1  0  0  0  0
 16 14  1  0  0  0  0
 17 18  1  0  0  0  0
 17 16  1  0  0  0  0
 19 18  1  6  0  0  0
 20 19  1  0  0  0  0
 20 21  1  0  0  0  0
 21 22  1  1  0  0  0
 21  1  1  0  0  0  0
 22 23  1  0  0  0  0
 24 25  1  0  0  0  0
 25 27  1  0  0  0  0
 26 25  2  0  0  0  0
 27 28  1  0  0  0  0
 27 35  1  1  0  0  0
 27 30  1  0  0  0  0
 28 29  1  0  0  0  0
 30 31  1  0  0  0  0
 31 33  1  0  0  0  0
 32 31  2  0  0  0  0
 33 34  1  0  0  0  0
 35 36  1  0  0  0  0
 36 37  1  0  0  0  0
 37 38  1  0  0  0  0
 38 40  1  0  0  0  0
 38 41  1  0  0  0  0
 39 38  1  0  0  0  0
 42 41  1  0  0  0  0
M  END
>  <minimizedAffinity>
-7.51614237

$$$$

 OpenBabel12271914523D

 42 46  0  0  1  0  0  0  0  0999 V2000
  -16.3310  -26.5510  -12.3740 C   0  0  1  0  0  0  0  0  0  0  0  0
  -16.6900  -26.1030  -10.8590 C   0  0  1  0  0  0  0  0  0  0  0  0
  -18.1340  -26.4660  -10.4330 C   0  0  0  0  0  0  0  0  0  0  0  0
  -19.0920  -25.7100  -11.1570 C   0  0  0  0  0  0  0  0  0  0  0  0
  -20.4710  -25.9750  -10.9050 C   0  0  0  0  0  0  0  0  0  0  0  0
  -21.4660  -25.3010  -11.5750 O   0  0  0  0  0  0  0  0  0  0  0  0
  -22.5610  -25.9010  -10.7970 C   0  0  0  0  0  0  0  0  0  0  0  0
  -22.2180  -27.0270   -9.8670 O   0  0  0  0  0  0  0  0  0  0  0  0
  -20.8290  -26.9060  -10.0010 C   0  0  0  0  0  0  0  0  0  0  0  0
  -19.9280  -27.6620   -9.2920 C   0  0  0  0  0  0  0  0  0  0  0  0
  -18.5460  -27.4300   -9.4980 C   0  0  0  0  0  0  0  0  0  0  0  0
  -17.6960  -28.2950   -8.6340 C   0  0  0  0  0  0  0  0  0  0  0  0
  -16.5580  -27.4820   -8.0410 C   0  0  0  0  0  0  0  0  0  0  0  0
  -15.4150  -27.5210   -9.0440 N   0  0  2  0  0  0  0  0  0  0  0  0
  -15.4250  -28.3670   -9.5550 H   0  0  0  0  0  0  0  0  0  0  0  0
  -14.0720  -27.2800   -8.2840 C   0  0  0  0  0  0  0  0  0  0  0  0
  -13.8770  -25.7700   -8.3010 C   0  0  0  0  0  0  0  0  0  0  0  0
  -14.9930  -25.1640   -9.1210 C   0  0  0  0  0  0  0  0  0  0  0  0
  -15.4110  -26.3570   -9.9910 C   0  0  2  0  0  0  0  0  0  0  0  0
  -14.3390  -26.5730  -11.0390 C   0  0  0  0  0  0  0  0  0  0  0  0
  -14.8720  -26.6530  -12.2800 C   0  0  1  0  0  0  0  0  0  0  0  0
  -14.0680  -26.8790  -13.3780 O   0  0  0  0  0  0  0  0  0  0  0  0
  -14.1810  -25.8470  -14.3190 C   0  0  0  0  0  0  0  0  0  0  0  0
  -16.9240  -27.7880  -12.6200 O   0  0  0  0  0  0  0  0  0  0  0  0
  -17.5870  -27.7870  -13.8590 C   0  0  0  0  0  0  0  0  0  0  0  0
  -18.3340  -26.9460  -14.2860 O   0  0  0  0  0  0  0  0  0  0  0  0
  -17.1800  -29.0720  -14.6690 C   0  0  2  0  0  0  0  0  0  0  0  0
  -16.6290  -30.1450  -13.8110 O   0  0  0  0  0  0  0  0  0  0  0  0
  -16.6030  -30.9380  -14.3820 H   0  0  0  0  0  0  0  0  0  0  0  0
  -16.0960  -28.6740  -15.6690 C   0  0  0  0  0  0  0  0  0  0  0  0
  -14.9660  -29.7290  -15.6410 C   0  0  0  0  0  0  0  0  0  0  0  0
  -13.9100  -29.4840  -15.0500 O   0  0  0  0  0  0  0  0  0  0  0  0
  -15.3390  -30.8650  -16.2740 O   0  0  0  0  0  0  0  0  0  0  0  0
  -15.5690  -30.6450  -17.6650 C   0  0  0  0  0  0  0  0  0  0  0  0
  -18.4360  -29.7460  -15.2550 C   0  0  0  0  0  0  0  0  0  0  0  0
  -19.3720  -30.6940  -14.4810 C   0  0  0  0  0  0  0  0  0  0  0  0
  -20.8170  -30.2410  -14.3130 C   0  0  0  0  0  0  0  0  0  0  0  0
  -21.0450  -29.4970  -12.9850 C   0  0  0  0  0  0  0  0  0  0  0  0
  -19.9790  -29.8670  -11.9660 C   0  0  0  0  0  0  0  0  0  0  0  0
  -22.4340  -29.7830  -12.4440 C   0  0  0  0  0  0  0  0  0  0  0  0
  -20.9760  -28.1050  -13.2740 O   0  0  0  0  0  0  0  0  0  0  0  0
  -20.1020  -27.9360  -13.6510 H   0  0  0  0  0  0  0  0  0  0  0  0
  1 24  1  1  0  0  0
  1 21  1  0  0  0  0
  1  2  1  0  0  0  0
  2  3  1  0  0  0  0
  2 19  1  1  0  0  0
  3 11  1  0  0  0  0
  4  5  1  0  0  0  0
  4  3  2  0  0  0  0
  5  9  2  0  0  0  0
  6  5  1  0  0  0  0
  6  7  1  0  0  0  0
  7  8  1  0  0  0  0
  9  8  1  0  0  0  0
  9 10  1  0  0  0  0
 11 10  2  0  0  0  0
 11 12  1  0  0  0  0
 12 13  1  0  0  0  0
 14 19  1  6  0  0  0
 14 16  1  0  0  0  0
 14 13  1  0  0  0  0
 15 14  1  0  0  0  0
 17 16  1  0  0  0  0
 18 17  1  0  0  0  0
 19 20  1  6  0  0  0
 19 18  1  0  0  0  0
 21 22  1  1  0  0  0
 21 20  1  0  0  0  0
 23 22  1  0  0  0  0
 25 24  1  0  0  0  0
 26 25  2  0  0  0  0
 27 30  1  6  0  0  0
 27 25  1  0  0  0  0
 27 28  1  0  0  0  0
 29 28  1  0  0  0  0
 30 31  1  0  0  0  0
 31 32  2  0  0  0  0
 33 31  1  0  0  0  0
 34 33  1  0  0  0  0
 35 27  1  0  0  0  0
 35 36  1  0  0  0  0
 36 37  1  0  0  0  0
 37 38  1  0  0  0  0
 38 40  1  0  0  0  0
 38 39  1  0  0  0  0
 41 38  1  0  0  0  0
 42 41  1  0  0  0  0
M  END
>  <minimizedAffinity>
-7.51032305

$$$$

 OpenBabel12271914523D

 42 46  0  0  1  0  0  0  0  0999 V2000
  -16.0250  -26.0220  -11.8430 C   0  0  1  0  0  0  0  0  0  0  0  0
  -16.7050  -25.8920  -10.3770 C   0  0  1  0  0  0  0  0  0  0  0  0
  -18.1460  -26.4570  -10.3130 C   0  0  0  0  0  0  0  0  0  0  0  0
  -19.0440  -25.6710  -11.0820 C   0  0  0  0  0  0  0  0  0  0  0  0
  -20.4010  -26.1020  -11.1570 C   0  0  0  0  0  0  0  0  0  0  0  0
  -21.3350  -25.4100  -11.8940 O   0  0  0  0  0  0  0  0  0  0  0  0
  -22.4700  -26.2390  -11.4580 C   0  0  0  0  0  0  0  0  0  0  0  0
  -22.1630  -27.4800  -10.6720 O   0  0  0  0  0  0  0  0  0  0  0  0
  -20.7990  -27.2110  -10.5050 C   0  0  0  0  0  0  0  0  0  0  0  0
  -19.9540  -27.9980   -9.7610 C   0  0  0  0  0  0  0  0  0  0  0  0
  -18.5980  -27.6080   -9.6470 C   0  0  0  0  0  0  0  0  0  0  0  0
  -17.8170  -28.5350   -8.7810 C   0  0  0  0  0  0  0  0  0  0  0  0
  -16.9150  -27.7440   -7.8500 C   0  0  0  0  0  0  0  0  0  0  0  0
  -15.6140  -27.4950   -8.5980 N   0  0  2  0  0  0  0  0  0  0  0  0
  -15.4250  -28.2320   -9.2300 H   0  0  0  0  0  0  0  0  0  0  0  0
  -14.4700  -27.2760   -7.5560 C   0  0  0  0  0  0  0  0  0  0  0  0
  -14.4650  -25.7770   -7.2900 C   0  0  0  0  0  0  0  0  0  0  0  0
  -15.4810  -25.1350   -8.2080 C   0  0  0  0  0  0  0  0  0  0  0  0
  -15.5830  -26.1830   -9.3240 C   0  0  2  0  0  0  0  0  0  0  0  0
  -14.3200  -26.1070  -10.1580 C   0  0  0  0  0  0  0  0  0  0  0  0
  -14.6060  -26.0080  -11.4760 C   0  0  1  0  0  0  0  0  0  0  0  0
  -13.5950  -25.9560  -12.4140 O   0  0  0  0  0  0  0  0  0  0  0  0
  -12.5660  -25.0920  -12.0140 C   0  0  0  0  0  0  0  0  0  0  0  0
  -16.4060  -27.2430  -12.3980 O   0  0  0  0  0  0  0  0  0  0  0  0
  -16.7200  -27.0960  -13.7600 C   0  0  0  0  0  0  0  0  0  0  0  0
  -17.5290  -26.3500  -14.2450 O   0  0  0  0  0  0  0  0  0  0  0  0
  -15.8100  -28.0560  -14.6110 C   0  0  2  0  0  0  0  0  0  0  0  0
  -14.5460  -28.4090  -13.9280 O   0  0  0  0  0  0  0  0  0  0  0  0
  -14.1710  -29.1440  -14.4510 H   0  0  0  0  0  0  0  0  0  0  0  0
  -15.4510  -27.3340  -15.9090 C   0  0  0  0  0  0  0  0  0  0  0  0
  -13.9310  -27.4650  -16.1600 C   0  0  0  0  0  0  0  0  0  0  0  0
  -13.4790  -28.4900  -16.6780 O   0  0  0  0  0  0  0  0  0  0  0  0
  -13.2730  -26.3420  -15.7890 O   0  0  0  0  0  0  0  0  0  0  0  0
  -14.1080  -25.1870  -15.8700 C   0  0  0  0  0  0  0  0  0  0  0  0
  -16.4880  -29.4320  -14.7590 C   0  0  0  0  0  0  0  0  0  0  0  0
  -16.9140  -30.0660  -16.0970 C   0  0  0  0  0  0  0  0  0  0  0  0
  -15.9010  -30.9810  -16.7730 C   0  0  0  0  0  0  0  0  0  0  0  0
  -15.8880  -30.8090  -18.3030 C   0  0  0  0  0  0  0  0  0  0  0  0
  -16.9580  -29.8240  -18.7470 C   0  0  0  0  0  0  0  0  0  0  0  0
  -16.0650  -32.1480  -18.9930 C   0  0  0  0  0  0  0  0  0  0  0  0
  -14.6000  -30.3130  -18.6520 O   0  0  0  0  0  0  0  0  0  0  0  0
  -14.4790  -29.4770  -18.1810 H   0  0  0  0  0  0  0  0  0  0  0  0
  1 24  1  1  0  0  0
  1 21  1  0  0  0  0
  1  2  1  0  0  0  0
  2  3  1  0  0  0  0
  2 19  1  1  0  0  0
  3 11  1  0  0  0  0
  4  3  2  0  0  0  0
  5  4  1  0  0  0  0
  5  9  2  0  0  0  0
  6  7  1  0  0  0  0
  6  5  1  0  0  0  0
  7  8  1  0  0  0  0
  8  9  1  0  0  0  0
  9 10  1  0  0  0  0
 10 11  2  0  0  0  0
 11 12  1  0  0  0  0
 12 13  1  0  0  0  0
 14 19  1  6  0  0  0
 14 13  1  0  0  0  0
 14 16  1  0  0  0  0
 15 14  1  0  0  0  0
 16 17  1  0  0  0  0
 18 17  1  0  0  0  0
 19 20  1  6  0  0  0
 19 18  1  0  0  0  0
 21 22  1  6  0  0  0
 21 20  1  0  0  0  0
 22 23  1  0  0  0  0
 25 24  1  0  0  0  0
 26 25  2  0  0  0  0
 27 30  1  6  0  0  0
 27 28  1  0  0  0  0
 27 25  1  0  0  0  0
 29 28  1  0  0  0  0
 31 30  1  0  0  0  0
 31 33  1  0  0  0  0
 32 31  2  0  0  0  0
 34 33  1  0  0  0  0
 35 27  1  0  0  0  0
 36 35  1  0  0  0  0
 37 36  1  0  0  0  0
 38 37  1  0  0  0  0
 39 38  1  0  0  0  0
 40 38  1  0  0  0  0
 41 38  1  0  0  0  0
 41 42  1  0  0  0  0
M  END
>  <minimizedAffinity>
-7.37613487

$$$$
