
 OpenBabel12271914523D

 27 29  0  0  1  0  0  0  0  0999 V2000
  -15.2570  -26.4950   -8.9560 C   0  0  1  0  0  0  0  0  0  0  0  0
  -15.3520  -25.2530   -8.1980 N   0  0  0  0  0  0  0  0  0  0  0  0
  -15.1130  -24.3120   -8.6630 H   0  0  0  0  0  0  0  0  0  0  0  0
  -16.8320  -25.1850   -7.7770 O   0  0  0  0  0  0  0  0  0  0  0  0
  -17.1610  -26.6290   -7.6890 C   0  0  2  0  0  0  0  0  0  0  0  0
  -18.6380  -26.7950   -7.5020 C   0  0  1  0  0  0  0  0  0  0  0  0
  -19.0520  -26.0300   -6.2670 C   0  0  2  0  0  0  0  0  0  0  0  0
  -18.2900  -26.5420   -5.0490 C   0  0  1  0  0  0  0  0  0  0  0  0
  -16.8040  -26.7360   -5.2880 C   0  0  2  0  0  0  0  0  0  0  0  0
  -16.4910  -27.2950   -6.5830 O   0  0  0  0  0  0  0  0  0  0  0  0
  -16.5890  -27.1980   -8.9230 C   0  0  0  0  0  0  0  0  0  0  0  0
  -14.7080  -26.2980  -10.3390 C   0  0  0  0  0  0  0  0  0  0  0  0
  -15.4440  -26.7340  -11.4340 C   0  0  0  0  0  0  0  0  0  0  0  0
  -14.9650  -26.5320  -12.7290 C   0  0  0  0  0  0  0  0  0  0  0  0
  -13.7520  -25.8740  -12.9330 C   0  0  0  0  0  0  0  0  0  0  0  0
  -13.2740  -25.6830  -14.3380 C   0  0  0  0  0  0  0  0  0  0  0  0
  -13.0120  -25.4500  -11.8390 C   0  0  0  0  0  0  0  0  0  0  0  0
  -13.4830  -25.6440  -10.5480 C   0  0  0  0  0  0  0  0  0  0  0  0
  -20.4710  -26.2290   -6.0050 O   0  0  0  0  0  0  0  0  0  0  0  0
  -20.5980  -25.9170   -5.0910 H   0  0  0  0  0  0  0  0  0  0  0  0
  -19.3480  -26.3140   -8.6770 O   0  0  0  0  0  0  0  0  0  0  0  0
  -20.0850  -26.9370   -8.7750 H   0  0  0  0  0  0  0  0  0  0  0  0
  -18.4550  -25.5700   -3.9740 O   0  0  0  0  0  0  0  0  0  0  0  0
  -17.7720  -24.8840   -4.0880 H   0  0  0  0  0  0  0  0  0  0  0  0
  -16.2480  -27.7330   -4.2970 C   0  0  0  0  0  0  0  0  0  0  0  0
  -17.1500  -27.8420   -3.1650 O   0  0  0  0  0  0  0  0  0  0  0  0
  -16.6120  -27.7570   -2.3590 H   0  0  0  0  0  0  0  0  0  0  0  0
  1 12  1  6  0  0  0
  1 11  1  0  0  0  0
  1  2  1  0  0  0  0
  2  4  1  0  0  0  0
  3  2  1  0  0  0  0
  4  5  1  0  0  0  0
  5 11  1  6  0  0  0
  5 10  1  0  0  0  0
  6  5  1  6  0  0  0
  6  7  1  0  0  0  0
  7 19  1  1  0  0  0
  7  8  1  0  0  0  0
  8 23  1  1  0  0  0
  9  8  1  0  0  0  0
  9 25  1  1  0  0  0
 10  9  1  0  0  0  0
 13 12  2  0  0  0  0
 14 13  1  0  0  0  0
 15 14  2  0  0  0  0
 15 17  1  0  0  0  0
 16 15  1  0  0  0  0
 17 18  2  0  0  0  0
 18 12  1  0  0  0  0
 19 20  1  0  0  0  0
 21  6  1  0  0  0  0
 22 21  1  0  0  0  0
 24 23  1  0  0  0  0
 25 26  1  0  0  0  0
 26 27  1  0  0  0  0
M  END
>  <minimizedAffinity>
-8.23605251

$$$$

 OpenBabel12271914523D

 27 29  0  0  1  0  0  0  0  0999 V2000
  -15.0000  -26.3700   -8.3360 C   0  0  1  0  0  0  0  0  0  0  0  0
  -14.7000  -27.5870   -9.0810 N   0  0  0  0  0  0  0  0  0  0  0  0
  -14.9570  -28.5510   -8.6750 H   0  0  0  0  0  0  0  0  0  0  0  0
  -15.4880  -27.4260  -10.3940 O   0  0  0  0  0  0  0  0  0  0  0  0
  -15.4930  -25.9490  -10.5340 C   0  0  2  0  0  0  0  0  0  0  0  0
  -16.4100  -25.5560  -11.6500 C   0  0  1  0  0  0  0  0  0  0  0  0
  -15.9580  -26.2550  -12.9100 C   0  0  2  0  0  0  0  0  0  0  0  0
  -14.5150  -25.8780  -13.2340 C   0  0  1  0  0  0  0  0  0  0  0  0
  -13.5840  -25.9170  -12.0370 C   0  0  2  0  0  0  0  0  0  0  0  0
  -14.1760  -25.4040  -10.8220 O   0  0  0  0  0  0  0  0  0  0  0  0
  -15.8550  -25.4670   -9.1880 C   0  0  0  0  0  0  0  0  0  0  0  0
  -15.5720  -26.6400   -6.9750 C   0  0  0  0  0  0  0  0  0  0  0  0
  -16.8430  -26.1740   -6.6640 C   0  0  0  0  0  0  0  0  0  0  0  0
  -17.4040  -26.4430   -5.4140 C   0  0  0  0  0  0  0  0  0  0  0  0
  -16.6980  -27.1950   -4.4760 C   0  0  0  0  0  0  0  0  0  0  0  0
  -17.3360  -27.4550   -3.1480 C   0  0  0  0  0  0  0  0  0  0  0  0
  -15.4240  -27.6490   -4.7830 C   0  0  0  0  0  0  0  0  0  0  0  0
  -14.8600  -27.3900   -6.0240 C   0  0  0  0  0  0  0  0  0  0  0  0
  -16.7780  -25.8400  -14.0390 O   0  0  0  0  0  0  0  0  0  0  0  0
  -16.2830  -26.1340  -14.8250 H   0  0  0  0  0  0  0  0  0  0  0  0
  -17.7810  -25.9120  -11.3200 O   0  0  0  0  0  0  0  0  0  0  0  0
  -18.3060  -25.1810  -11.6820 H   0  0  0  0  0  0  0  0  0  0  0  0
  -14.0170  -26.8200  -14.2290 O   0  0  0  0  0  0  0  0  0  0  0  0
  -13.6840  -27.6040  -13.7550 H   0  0  0  0  0  0  0  0  0  0  0  0
  -12.3880  -25.0260  -12.2850 C   0  0  0  0  0  0  0  0  0  0  0  0
  -12.0590  -25.0420  -13.6990 O   0  0  0  0  0  0  0  0  0  0  0  0
  -11.1040  -25.2080  -13.7700 H   0  0  0  0  0  0  0  0  0  0  0  0
  1 12  1  1  0  0  0
  2  3  1  0  0  0  0
  2  1  1  0  0  0  0
  4  2  1  0  0  0  0
  5  4  1  0  0  0  0
  5 11  1  1  0  0  0
  6 21  1  0  0  0  0
  6  5  1  1  0  0  0
  7 19  1  6  0  0  0
  7  6  1  0  0  0  0
  8 23  1  6  0  0  0
  8  7  1  0  0  0  0
  8  9  1  0  0  0  0
  9 25  1  6  0  0  0
  9 10  1  0  0  0  0
 10  5  1  0  0  0  0
 11  1  1  0  0  0  0
 12 13  2  0  0  0  0
 12 18  1  0  0  0  0
 13 14  1  0  0  0  0
 14 15  2  0  0  0  0
 15 16  1  0  0  0  0
 17 15  1  0  0  0  0
 18 17  2  0  0  0  0
 20 19  1  0  0  0  0
 22 21  1  0  0  0  0
 23 24  1  0  0  0  0
 26 25  1  0  0  0  0
 27 26  1  0  0  0  0
M  END
>  <minimizedAffinity>
-8.06151867

$$$$

 OpenBabel12271914523D

 27 29  0  0  1  0  0  0  0  0999 V2000
  -27.2940  -26.5000   -3.2310 C   0  0  1  0  0  0  0  0  0  0  0  0
  -26.9870  -26.7180   -1.8230 N   0  0  0  0  0  0  0  0  0  0  0  0
  -26.4460  -27.5970   -1.5130 H   0  0  0  0  0  0  0  0  0  0  0  0
  -26.1280  -25.5010   -1.4340 O   0  0  0  0  0  0  0  0  0  0  0  0
  -26.6670  -24.4740   -2.3610 C   0  0  2  0  0  0  0  0  0  0  0  0
  -25.8100  -23.2480   -2.3020 C   0  0  1  0  0  0  0  0  0  0  0  0
  -25.7610  -22.7670   -0.8720 C   0  0  2  0  0  0  0  0  0  0  0  0
  -27.1690  -22.4700   -0.3660 C   0  0  1  0  0  0  0  0  0  0  0  0
  -28.1870  -23.5400   -0.7100 C   0  0  2  0  0  0  0  0  0  0  0  0
  -28.0310  -24.0850   -2.0400 O   0  0  0  0  0  0  0  0  0  0  0  0
  -26.7300  -25.1700   -3.6600 C   0  0  0  0  0  0  0  0  0  0  0  0
  -26.8790  -27.6460   -4.1070 C   0  0  0  0  0  0  0  0  0  0  0  0
  -25.5300  -27.8570   -4.3620 C   0  0  0  0  0  0  0  0  0  0  0  0
  -25.1230  -28.9360   -5.1480 C   0  0  0  0  0  0  0  0  0  0  0  0
  -26.0680  -29.8200   -5.6690 C   0  0  0  0  0  0  0  0  0  0  0  0
  -25.5880  -30.9590   -6.5110 C   0  0  0  0  0  0  0  0  0  0  0  0
  -27.4160  -29.6000   -5.4250 C   0  0  0  0  0  0  0  0  0  0  0  0
  -27.8290  -28.5320   -4.6420 C   0  0  0  0  0  0  0  0  0  0  0  0
  -24.9980  -21.5290   -0.7840 O   0  0  0  0  0  0  0  0  0  0  0  0
  -25.2150  -21.1680    0.0940 H   0  0  0  0  0  0  0  0  0  0  0  0
  -24.4760  -23.5460   -2.8000 O   0  0  0  0  0  0  0  0  0  0  0  0
  -24.2230  -22.7450   -3.2830 H   0  0  0  0  0  0  0  0  0  0  0  0
  -27.1090  -22.3490    1.0860 O   0  0  0  0  0  0  0  0  0  0  0  0
  -27.1850  -23.2450    1.4610 H   0  0  0  0  0  0  0  0  0  0  0  0
  -29.5780  -22.9520   -0.6990 C   0  0  0  0  0  0  0  0  0  0  0  0
  -29.4970  -21.5160   -0.8970 O   0  0  0  0  0  0  0  0  0  0  0  0
  -30.0420  -21.0990   -0.2090 H   0  0  0  0  0  0  0  0  0  0  0  0
  1 12  1  6  0  0  0
  1  2  1  0  0  0  0
  2  3  1  0  0  0  0
  2  4  1  0  0  0  0
  5 11  1  6  0  0  0
  5 10  1  0  0  0  0
  5  4  1  0  0  0  0
  6  5  1  1  0  0  0
  6  7  1  0  0  0  0
  7 19  1  6  0  0  0
  7  8  1  0  0  0  0
  8 23  1  1  0  0  0
  9 25  1  6  0  0  0
  9  8  1  0  0  0  0
 10  9  1  0  0  0  0
 11  1  1  0  0  0  0
 13 12  1  0  0  0  0
 14 13  2  0  0  0  0
 15 17  2  0  0  0  0
 15 14  1  0  0  0  0
 16 15  1  0  0  0  0
 17 18  1  0  0  0  0
 18 12  2  0  0  0  0
 19 20  1  0  0  0  0
 21  6  1  0  0  0  0
 22 21  1  0  0  0  0
 23 24  1  0  0  0  0
 26 25  1  0  0  0  0
 26 27  1  0  0  0  0
M  END
>  <minimizedAffinity>
-7.48732328

$$$$

 OpenBabel12271914523D

 27 29  0  0  1  0  0  0  0  0999 V2000
  -25.7510  -24.5950   -3.7770 C   0  0  1  0  0  0  0  0  0  0  0  0
  -24.8110  -25.6190   -3.3360 N   0  0  0  0  0  0  0  0  0  0  0  0
  -24.4600  -25.6340   -2.3180 H   0  0  0  0  0  0  0  0  0  0  0  0
  -25.5610  -26.9430   -3.5730 O   0  0  0  0  0  0  0  0  0  0  0  0
  -26.4200  -26.5720   -4.7250 C   0  0  2  0  0  0  0  0  0  0  0  0
  -27.4080  -27.6670   -4.9850 C   0  0  1  0  0  0  0  0  0  0  0  0
  -26.6480  -28.9500   -5.2200 C   0  0  2  0  0  0  0  0  0  0  0  0
  -25.6920  -28.7900   -6.3970 C   0  0  1  0  0  0  0  0  0  0  0  0
  -24.8960  -27.4990   -6.3750 C   0  0  2  0  0  0  0  0  0  0  0  0
  -25.6620  -26.3510   -5.9460 O   0  0  0  0  0  0  0  0  0  0  0  0
  -26.9790  -25.2620   -4.3410 C   0  0  0  0  0  0  0  0  0  0  0  0
  -26.0470  -23.5750   -2.7170 C   0  0  0  0  0  0  0  0  0  0  0  0
  -25.1450  -22.5410   -2.4950 C   0  0  0  0  0  0  0  0  0  0  0  0
  -25.4180  -21.5640   -1.5360 C   0  0  0  0  0  0  0  0  0  0  0  0
  -26.6050  -21.6110   -0.8050 C   0  0  0  0  0  0  0  0  0  0  0  0
  -26.8530  -20.5470    0.2160 C   0  0  0  0  0  0  0  0  0  0  0  0
  -27.4980  -22.6500   -1.0190 C   0  0  0  0  0  0  0  0  0  0  0  0
  -27.2370  -23.6230   -1.9730 C   0  0  0  0  0  0  0  0  0  0  0  0
  -27.5700  -30.0270   -5.5530 O   0  0  0  0  0  0  0  0  0  0  0  0
  -27.0050  -30.7310   -5.9180 H   0  0  0  0  0  0  0  0  0  0  0  0
  -28.3180  -27.7970   -3.8580 O   0  0  0  0  0  0  0  0  0  0  0  0
  -29.1720  -27.9990   -4.2700 H   0  0  0  0  0  0  0  0  0  0  0  0
  -24.7520  -29.9050   -6.3690 O   0  0  0  0  0  0  0  0  0  0  0  0
  -24.0220  -29.6610   -5.7700 H   0  0  0  0  0  0  0  0  0  0  0  0
  -24.4370  -27.1510   -7.7720 C   0  0  0  0  0  0  0  0  0  0  0  0
  -23.0340  -26.7810   -7.7410 O   0  0  0  0  0  0  0  0  0  0  0  0
  -22.9460  -25.9440   -8.2280 H   0  0  0  0  0  0  0  0  0  0  0  0
  1  2  1  0  0  0  0
  1 12  1  1  0  0  0
  2  3  1  0  0  0  0
  4  2  1  0  0  0  0
  5 11  1  1  0  0  0
  5  4  1  0  0  0  0
  6  5  1  1  0  0  0
  6 21  1  0  0  0  0
  7 19  1  6  0  0  0
  7  6  1  0  0  0  0
  8  9  1  0  0  0  0
  8 23  1  1  0  0  0
  8  7  1  0  0  0  0
  9 25  1  6  0  0  0
  9 10  1  0  0  0  0
 10  5  1  0  0  0  0
 11  1  1  0  0  0  0
 12 13  2  0  0  0  0
 12 18  1  0  0  0  0
 13 14  1  0  0  0  0
 14 15  2  0  0  0  0
 15 16  1  0  0  0  0
 17 15  1  0  0  0  0
 18 17  2  0  0  0  0
 20 19  1  0  0  0  0
 22 21  1  0  0  0  0
 23 24  1  0  0  0  0
 25 26  1  0  0  0  0
 27 26  1  0  0  0  0
M  END
>  <minimizedAffinity>
-7.48348761

$$$$

 OpenBabel12271914523D

 27 29  0  0  1  0  0  0  0  0999 V2000
  -16.1330  -26.9550   -9.2340 C   0  0  1  0  0  0  0  0  0  0  0  0
  -16.5290  -25.7690   -9.9840 N   0  0  0  0  0  0  0  0  0  0  0  0
  -17.0240  -24.9510   -9.4870 H   0  0  0  0  0  0  0  0  0  0  0  0
  -15.2040  -25.2200  -10.5440 O   0  0  0  0  0  0  0  0  0  0  0  0
  -14.4210  -26.4740  -10.6800 C   0  0  2  0  0  0  0  0  0  0  0  0
  -12.9990  -26.1410  -11.0090 C   0  0  1  0  0  0  0  0  0  0  0  0
  -12.9820  -25.3090  -12.2690 C   0  0  2  0  0  0  0  0  0  0  0  0
  -13.6410  -26.0720  -13.4140 C   0  0  1  0  0  0  0  0  0  0  0  0
  -14.9470  -26.7450  -13.0360 C   0  0  2  0  0  0  0  0  0  0  0  0
  -14.9310  -27.3480  -11.7230 O   0  0  0  0  0  0  0  0  0  0  0  0
  -14.6510  -27.1740   -9.4030 C   0  0  0  0  0  0  0  0  0  0  0  0
  -16.5830  -26.9220   -7.8030 C   0  0  0  0  0  0  0  0  0  0  0  0
  -15.6500  -27.1050   -6.7890 C   0  0  0  0  0  0  0  0  0  0  0  0
  -16.0440  -27.0470   -5.4520 C   0  0  0  0  0  0  0  0  0  0  0  0
  -17.3750  -26.7880   -5.1230 C   0  0  0  0  0  0  0  0  0  0  0  0
  -17.7530  -26.7400   -3.6770 C   0  0  0  0  0  0  0  0  0  0  0  0
  -18.3080  -26.6190   -6.1360 C   0  0  0  0  0  0  0  0  0  0  0  0
  -17.9240  -26.6720   -7.4680 C   0  0  0  0  0  0  0  0  0  0  0  0
  -11.6090  -25.0290  -12.6690 O   0  0  0  0  0  0  0  0  0  0  0  0
  -11.6800  -24.7120  -13.5870 H   0  0  0  0  0  0  0  0  0  0  0  0
  -12.3830  -25.4260   -9.9030 O   0  0  0  0  0  0  0  0  0  0  0  0
  -11.4740  -25.7650   -9.8820 H   0  0  0  0  0  0  0  0  0  0  0  0
  -13.9120  -25.1240  -14.4890 O   0  0  0  0  0  0  0  0  0  0  0  0
  -14.7710  -24.7020  -14.3030 H   0  0  0  0  0  0  0  0  0  0  0  0
  -15.2280  -27.8910  -13.9800 C   0  0  0  0  0  0  0  0  0  0  0  0
  -15.6870  -27.3660  -15.2540 O   0  0  0  0  0  0  0  0  0  0  0  0
  -16.4930  -27.8540  -15.4930 H   0  0  0  0  0  0  0  0  0  0  0  0
  1 12  1  1  0  0  0
  2  3  1  0  0  0  0
  2  1  1  0  0  0  0
  4  2  1  0  0  0  0
  5  4  1  0  0  0  0
  5 11  1  1  0  0  0
  6  5  1  1  0  0  0
  6 21  1  0  0  0  0
  7 19  1  6  0  0  0
  7  6  1  0  0  0  0
  8 23  1  6  0  0  0
  8  9  1  0  0  0  0
  8  7  1  0  0  0  0
  9 25  1  6  0  0  0
  9 10  1  0  0  0  0
 10  5  1  0  0  0  0
 11  1  1  0  0  0  0
 12 18  2  0  0  0  0
 12 13  1  0  0  0  0
 13 14  2  0  0  0  0
 14 15  1  0  0  0  0
 15 16  1  0  0  0  0
 17 15  2  0  0  0  0
 18 17  1  0  0  0  0
 20 19  1  0  0  0  0
 21 22  1  0  0  0  0
 23 24  1  0  0  0  0
 26 25  1  0  0  0  0
 27 26  1  0  0  0  0
M  END
>  <minimizedAffinity>
-7.35703659

$$$$

 OpenBabel12271914523D

 27 29  0  0  1  0  0  0  0  0999 V2000
  -14.6750  -26.3270  -10.9530 C   0  0  1  0  0  0  0  0  0  0  0  0
  -14.8720  -25.1030  -10.1860 N   0  0  0  0  0  0  0  0  0  0  0  0
  -14.8560  -24.1440  -10.6770 H   0  0  0  0  0  0  0  0  0  0  0  0
  -16.2720  -25.2700   -9.5690 O   0  0  0  0  0  0  0  0  0  0  0  0
  -16.3440  -26.7470   -9.4400 C   0  0  2  0  0  0  0  0  0  0  0  0
  -17.7340  -27.1480   -9.0550 C   0  0  1  0  0  0  0  0  0  0  0  0
  -18.1000  -26.4370   -7.7730 C   0  0  2  0  0  0  0  0  0  0  0  0
  -17.1070  -26.7920   -6.6710 C   0  0  1  0  0  0  0  0  0  0  0  0
  -15.6550  -26.7440   -7.1090 C   0  0  2  0  0  0  0  0  0  0  0  0
  -15.4310  -27.2710   -8.4370 O   0  0  0  0  0  0  0  0  0  0  0  0
  -15.8560  -27.2390  -10.7410 C   0  0  0  0  0  0  0  0  0  0  0  0
  -14.3570  -26.0700  -12.3970 C   0  0  0  0  0  0  0  0  0  0  0  0
  -15.3320  -26.2950  -13.3610 C   0  0  0  0  0  0  0  0  0  0  0  0
  -15.0650  -26.0330  -14.7060 C   0  0  0  0  0  0  0  0  0  0  0  0
  -13.8230  -25.5270  -15.0880 C   0  0  0  0  0  0  0  0  0  0  0  0
  -13.5790  -25.2650  -16.5410 C   0  0  0  0  0  0  0  0  0  0  0  0
  -12.8460  -25.3150  -14.1270 C   0  0  0  0  0  0  0  0  0  0  0  0
  -13.1040  -25.5700  -12.7870 C   0  0  0  0  0  0  0  0  0  0  0  0
  -19.4180  -26.8610   -7.3220 O   0  0  0  0  0  0  0  0  0  0  0  0
  -19.4710  -26.5560   -6.3980 H   0  0  0  0  0  0  0  0  0  0  0  0
  -18.6640  -26.8140  -10.1210 O   0  0  0  0  0  0  0  0  0  0  0  0
  -19.2950  -27.5510  -10.1200 H   0  0  0  0  0  0  0  0  0  0  0  0
  -17.2840  -25.8390   -5.5810 O   0  0  0  0  0  0  0  0  0  0  0  0
  -16.7460  -25.0520   -5.7850 H   0  0  0  0  0  0  0  0  0  0  0  0
  -14.8140  -27.6160   -6.2060 C   0  0  0  0  0  0  0  0  0  0  0  0
  -15.5930  -27.9960   -5.0400 O   0  0  0  0  0  0  0  0  0  0  0  0
  -15.0450  -27.8170   -4.2570 H   0  0  0  0  0  0  0  0  0  0  0  0
  1 12  1  6  0  0  0
  1 11  1  0  0  0  0
  1  2  1  0  0  0  0
  2  4  1  0  0  0  0
  3  2  1  0  0  0  0
  4  5  1  0  0  0  0
  5 11  1  6  0  0  0
  5 10  1  0  0  0  0
  6  5  1  6  0  0  0
  6  7  1  0  0  0  0
  7 19  1  1  0  0  0
  7  8  1  0  0  0  0
  8 23  1  1  0  0  0
  9  8  1  0  0  0  0
  9 25  1  1  0  0  0
 10  9  1  0  0  0  0
 13 12  2  0  0  0  0
 14 13  1  0  0  0  0
 15 14  2  0  0  0  0
 15 17  1  0  0  0  0
 16 15  1  0  0  0  0
 17 18  2  0  0  0  0
 18 12  1  0  0  0  0
 19 20  1  0  0  0  0
 21 22  1  0  0  0  0
 21  6  1  0  0  0  0
 24 23  1  0  0  0  0
 25 26  1  0  0  0  0
 26 27  1  0  0  0  0
M  END
>  <minimizedAffinity>
-7.25120831

$$$$

 OpenBabel12271914523D

 27 29  0  0  1  0  0  0  0  0999 V2000
  -17.8360  -26.6600  -10.7470 C   0  0  1  0  0  0  0  0  0  0  0  0
  -17.6490  -25.5530  -11.6780 N   0  0  0  0  0  0  0  0  0  0  0  0
  -18.2680  -24.6740  -11.6090 H   0  0  0  0  0  0  0  0  0  0  0  0
  -16.1980  -25.1010  -11.4350 O   0  0  0  0  0  0  0  0  0  0  0  0
  -15.5770  -26.3810  -11.0110 C   0  0  2  0  0  0  0  0  0  0  0  0
  -14.1910  -26.1220  -10.5080 C   0  0  1  0  0  0  0  0  0  0  0  0
  -13.4070  -25.4330  -11.5990 C   0  0  2  0  0  0  0  0  0  0  0  0
  -13.3760  -26.2980  -12.8540 C   0  0  1  0  0  0  0  0  0  0  0  0
  -14.7210  -26.8930  -13.2270 C   0  0  2  0  0  0  0  0  0  0  0  0
  -15.4890  -27.3510  -12.0910 O   0  0  0  0  0  0  0  0  0  0  0  0
  -16.5360  -26.9330  -10.0360 C   0  0  0  0  0  0  0  0  0  0  0  0
  -19.0030  -26.4610   -9.8250 C   0  0  0  0  0  0  0  0  0  0  0  0
  -18.7950  -26.4640   -8.4510 C   0  0  0  0  0  0  0  0  0  0  0  0
  -19.8630  -26.2490   -7.5780 C   0  0  0  0  0  0  0  0  0  0  0  0
  -21.1420  -26.0130   -8.0790 C   0  0  0  0  0  0  0  0  0  0  0  0
  -22.2570  -25.7930   -7.1070 C   0  0  0  0  0  0  0  0  0  0  0  0
  -21.3510  -26.0230   -9.4500 C   0  0  0  0  0  0  0  0  0  0  0  0
  -20.2950  -26.2320  -10.3260 C   0  0  0  0  0  0  0  0  0  0  0  0
  -12.0270  -25.2320  -11.1770 O   0  0  0  0  0  0  0  0  0  0  0  0
  -11.5480  -25.0150  -11.9970 H   0  0  0  0  0  0  0  0  0  0  0  0
  -14.2400  -25.3070   -9.3040 O   0  0  0  0  0  0  0  0  0  0  0  0
  -13.5280  -25.6650   -8.7510 H   0  0  0  0  0  0  0  0  0  0  0  0
  -12.9240  -25.4660  -13.9640 O   0  0  0  0  0  0  0  0  0  0  0  0
  -13.7030  -25.0050  -14.3250 H   0  0  0  0  0  0  0  0  0  0  0  0
  -14.5210  -28.1280  -14.0750 C   0  0  0  0  0  0  0  0  0  0  0  0
  -13.1020  -28.4120  -14.1880 O   0  0  0  0  0  0  0  0  0  0  0  0
  -12.9100  -28.5530  -15.1310 H   0  0  0  0  0  0  0  0  0  0  0  0
  1 11  1  0  0  0  0
  1 12  1  1  0  0  0
  2  3  1  0  0  0  0
  2  4  1  0  0  0  0
  2  1  1  0  0  0  0
  4  5  1  0  0  0  0
  5 11  1  1  0  0  0
  6  5  1  6  0  0  0
  6 21  1  0  0  0  0
  7 19  1  1  0  0  0
  7  6  1  0  0  0  0
  8 23  1  6  0  0  0
  8  7  1  0  0  0  0
  9 25  1  6  0  0  0
  9  8  1  0  0  0  0
  9 10  1  0  0  0  0
 10  5  1  0  0  0  0
 12 13  1  0  0  0  0
 13 14  2  0  0  0  0
 15 14  1  0  0  0  0
 15 16  1  0  0  0  0
 17 15  2  0  0  0  0
 18 12  2  0  0  0  0
 18 17  1  0  0  0  0
 20 19  1  0  0  0  0
 21 22  1  0  0  0  0
 24 23  1  0  0  0  0
 26 25  1  0  0  0  0
 27 26  1  0  0  0  0
M  END
>  <minimizedAffinity>
-7.11889744

$$$$

 OpenBabel12271914523D

 27 29  0  0  1  0  0  0  0  0999 V2000
  -18.8750  -28.4450  -10.6150 C   0  0  1  0  0  0  0  0  0  0  0  0
  -18.2020  -29.1670   -9.5420 N   0  0  0  0  0  0  0  0  0  0  0  0
  -17.7150  -30.1070   -9.7410 H   0  0  0  0  0  0  0  0  0  0  0  0
  -17.1140  -28.1900   -9.0590 O   0  0  0  0  0  0  0  0  0  0  0  0
  -17.7590  -26.8870   -9.3570 C   0  0  2  0  0  0  0  0  0  0  0  0
  -16.7680  -25.7820   -9.1630 C   0  0  1  0  0  0  0  0  0  0  0  0
  -16.2400  -25.8560   -7.7500 C   0  0  2  0  0  0  0  0  0  0  0  0
  -17.3870  -25.7390   -6.7510 C   0  0  1  0  0  0  0  0  0  0  0  0
  -18.5930  -26.5930   -7.0940 C   0  0  2  0  0  0  0  0  0  0  0  0
  -18.9060  -26.6170   -8.5040 O   0  0  0  0  0  0  0  0  0  0  0  0
  -18.2900  -27.0600  -10.7220 C   0  0  0  0  0  0  0  0  0  0  0  0
  -18.8900  -29.2000  -11.9120 C   0  0  0  0  0  0  0  0  0  0  0  0
  -20.0730  -29.7830  -12.3490 C   0  0  0  0  0  0  0  0  0  0  0  0
  -20.1140  -30.4620  -13.5670 C   0  0  0  0  0  0  0  0  0  0  0  0
  -18.9710  -30.5460  -14.3620 C   0  0  0  0  0  0  0  0  0  0  0  0
  -19.0600  -31.2880  -15.6580 C   0  0  0  0  0  0  0  0  0  0  0  0
  -17.7870  -29.9750  -13.9190 C   0  0  0  0  0  0  0  0  0  0  0  0
  -17.7390  -29.2940  -12.7110 C   0  0  0  0  0  0  0  0  0  0  0  0
  -15.3280  -24.7490   -7.4950 O   0  0  0  0  0  0  0  0  0  0  0  0
  -15.2300  -24.7300   -6.5260 H   0  0  0  0  0  0  0  0  0  0  0  0
  -15.6900  -25.9020  -10.1310 O   0  0  0  0  0  0  0  0  0  0  0  0
  -15.4840  -24.9840  -10.3670 H   0  0  0  0  0  0  0  0  0  0  0  0
  -16.8900  -26.1570   -5.4450 O   0  0  0  0  0  0  0  0  0  0  0  0
  -16.9710  -27.1270   -5.3940 H   0  0  0  0  0  0  0  0  0  0  0  0
  -19.8300  -26.0240   -6.4380 C   0  0  0  0  0  0  0  0  0  0  0  0
  -19.7520  -26.2250   -5.0020 O   0  0  0  0  0  0  0  0  0  0  0  0
  -20.5970  -26.6120   -4.7190 H   0  0  0  0  0  0  0  0  0  0  0  0
  1 12  1  6  0  0  0
  1  2  1  0  0  0  0
  2  4  1  0  0  0  0
  3  2  1  0  0  0  0
  5 11  1  6  0  0  0
  5  4  1  0  0  0  0
  5 10  1  0  0  0  0
  6  5  1  6  0  0  0
  6  7  1  0  0  0  0
  7 19  1  1  0  0  0
  7  8  1  0  0  0  0
  8 23  1  1  0  0  0
  9  8  1  0  0  0  0
  9 25  1  1  0  0  0
 10  9  1  0  0  0  0
 11  1  1  0  0  0  0
 13 12  1  0  0  0  0
 14 13  2  0  0  0  0
 15 17  2  0  0  0  0
 15 14  1  0  0  0  0
 16 15  1  0  0  0  0
 17 18  1  0  0  0  0
 18 12  2  0  0  0  0
 19 20  1  0  0  0  0
 21  6  1  0  0  0  0
 22 21  1  0  0  0  0
 23 24  1  0  0  0  0
 25 26  1  0  0  0  0
 26 27  1  0  0  0  0
M  END
>  <minimizedAffinity>
-6.97330999

$$$$

 OpenBabel12271914523D

 27 29  0  0  1  0  0  0  0  0999 V2000
  -16.2440  -25.7870  -10.8890 C   0  0  1  0  0  0  0  0  0  0  0  0
  -16.9090  -27.0060  -10.4440 N   0  0  0  0  0  0  0  0  0  0  0  0
  -16.9620  -27.8640  -11.0920 H   0  0  0  0  0  0  0  0  0  0  0  0
  -16.1120  -27.4320   -9.1970 O   0  0  0  0  0  0  0  0  0  0  0  0
  -15.6500  -26.1130   -8.6990 C   0  0  2  0  0  0  0  0  0  0  0  0
  -14.6580  -26.3140   -7.5960 C   0  0  1  0  0  0  0  0  0  0  0  0
  -15.3080  -27.1440   -6.5140 C   0  0  2  0  0  0  0  0  0  0  0  0
  -16.5630  -26.4480   -5.9970 C   0  0  1  0  0  0  0  0  0  0  0  0
  -17.4580  -25.8970   -7.0910 C   0  0  2  0  0  0  0  0  0  0  0  0
  -16.7340  -25.2910   -8.1850 O   0  0  0  0  0  0  0  0  0  0  0  0
  -15.1540  -25.4330   -9.9110 C   0  0  0  0  0  0  0  0  0  0  0  0
  -15.7820  -25.8570  -12.3150 C   0  0  0  0  0  0  0  0  0  0  0  0
  -14.4210  -25.8990  -12.5900 C   0  0  0  0  0  0  0  0  0  0  0  0
  -13.9720  -25.9960  -13.9080 C   0  0  0  0  0  0  0  0  0  0  0  0
  -14.8880  -26.0680  -14.9570 C   0  0  0  0  0  0  0  0  0  0  0  0
  -14.3630  -26.1670  -16.3540 C   0  0  0  0  0  0  0  0  0  0  0  0
  -16.2470  -26.0140  -14.6820 C   0  0  0  0  0  0  0  0  0  0  0  0
  -16.7010  -25.9210  -13.3740 C   0  0  0  0  0  0  0  0  0  0  0  0
  -14.4010  -27.2990   -5.3850 O   0  0  0  0  0  0  0  0  0  0  0  0
  -14.9640  -27.6230   -4.6600 H   0  0  0  0  0  0  0  0  0  0  0  0
  -13.4640  -26.9670   -8.1090 O   0  0  0  0  0  0  0  0  0  0  0  0
  -12.7400  -26.5460   -7.6210 H   0  0  0  0  0  0  0  0  0  0  0  0
  -17.3310  -27.4200   -5.2270 O   0  0  0  0  0  0  0  0  0  0  0  0
  -17.8890  -27.9180   -5.8510 H   0  0  0  0  0  0  0  0  0  0  0  0
  -18.3190  -24.7830   -6.5400 C   0  0  0  0  0  0  0  0  0  0  0  0
  -19.7180  -25.1510   -6.6600 O   0  0  0  0  0  0  0  0  0  0  0  0
  -20.1800  -24.3980   -7.0670 H   0  0  0  0  0  0  0  0  0  0  0  0
  1 12  1  6  0  0  0
  1  2  1  0  0  0  0
  1 11  1  0  0  0  0
  2  4  1  0  0  0  0
  3  2  1  0  0  0  0
  4  5  1  0  0  0  0
  5 11  1  6  0  0  0
  5 10  1  0  0  0  0
  6  5  1  6  0  0  0
  6  7  1  0  0  0  0
  7  8  1  0  0  0  0
  7 19  1  1  0  0  0
  8 23  1  6  0  0  0
  9 25  1  1  0  0  0
  9  8  1  0  0  0  0
 10  9  1  0  0  0  0
 13 12  1  0  0  0  0
 14 13  2  0  0  0  0
 15 17  2  0  0  0  0
 15 14  1  0  0  0  0
 16 15  1  0  0  0  0
 17 18  1  0  0  0  0
 18 12  2  0  0  0  0
 19 20  1  0  0  0  0
 21 22  1  0  0  0  0
 21  6  1  0  0  0  0
 24 23  1  0  0  0  0
 26 25  1  0  0  0  0
 27 26  1  0  0  0  0
M  END
>  <minimizedAffinity>
-6.96100426

$$$$
