
 OpenBabel12271914393D

 30 33  0  0  1  0  0  0  0  0999 V2000
  -21.4190  -25.0450   -7.3200 C   0  0  1  0  0  0  0  0  0  0  0  0
  -22.1290  -24.9840   -8.5930 N   0  0  0  0  0  0  0  0  0  0  0  0
  -22.1390  -25.8490   -9.0910 H   0  0  0  0  0  0  0  0  0  0  0  0
  -23.4740  -24.7430   -8.1670 O   0  0  0  0  0  0  0  0  0  0  0  0
  -23.7350  -25.5500   -7.0280 C   0  0  2  0  0  0  0  0  0  0  0  0
  -24.4640  -26.7910   -7.5270 C   0  0  1  0  0  0  0  0  0  0  0  0
  -25.1340  -27.4910   -6.3590 C   0  0  2  0  0  0  0  0  0  0  0  0
  -26.1660  -26.5330   -5.7200 C   0  0  1  0  0  0  0  0  0  0  0  0
  -25.6440  -25.1150   -5.5510 C   0  0  2  0  0  0  0  0  0  0  0  0
  -24.3840  -24.8010   -6.0390 O   0  0  0  0  0  0  0  0  0  0  0  0
  -22.3430  -25.8730   -6.4550 C   0  0  0  0  0  0  0  0  0  0  0  0
  -20.0490  -25.6610   -7.4280 C   0  0  0  0  0  0  0  0  0  0  0  0
  -19.6640  -26.1650   -8.6600 C   0  0  0  0  0  0  0  0  0  0  0  0
  -18.4310  -26.7710   -8.8320 C   0  0  0  0  0  0  0  0  0  0  0  0
  -17.5470  -26.8670   -7.7430 C   0  0  0  0  0  0  0  0  0  0  0  0
  -16.2950  -27.4960   -7.8820 C   0  0  0  0  0  0  0  0  0  0  0  0
  -15.4370  -27.5890   -6.7970 C   0  0  0  0  0  0  0  0  0  0  0  0
  -15.7880  -27.0750   -5.5640 C   0  0  0  0  0  0  0  0  0  0  0  0
  -17.0160  -26.4550   -5.4110 C   0  0  0  0  0  0  0  0  0  0  0  0
  -17.9050  -26.3470   -6.4980 C   0  0  0  0  0  0  0  0  0  0  0  0
  -19.1610  -25.7320   -6.3590 C   0  0  0  0  0  0  0  0  0  0  0  0
  -24.1630  -27.9200   -5.4290 O   0  0  0  0  0  0  0  0  0  0  0  0
  -24.6010  -28.1050   -4.5660 H   0  0  0  0  0  0  0  0  0  0  0  0
  -25.4300  -26.4640   -8.5110 O   0  0  0  0  0  0  0  0  0  0  0  0
  -25.5010  -25.4840   -8.5850 H   0  0  0  0  0  0  0  0  0  0  0  0
  -27.3660  -26.5170   -6.4830 O   0  0  0  0  0  0  0  0  0  0  0  0
  -27.7680  -27.4030   -6.5150 H   0  0  0  0  0  0  0  0  0  0  0  0
  -25.6050  -24.7500   -4.0450 C   0  0  0  0  0  0  0  0  0  0  0  0
  -24.8240  -25.6710   -3.2970 O   0  0  0  0  0  0  0  0  0  0  0  0
  -24.2320  -25.1770   -2.6850 H   0  0  0  0  0  0  0  0  0  0  0  0
  1 12  1  6  0  0  0
  1 11  1  0  0  0  0
  2  4  1  0  0  0  0
  2  1  1  0  0  0  0
  3  2  1  0  0  0  0
  4  5  1  0  0  0  0
  5 11  1  1  0  0  0
  5 10  1  0  0  0  0
  6  5  1  1  0  0  0
  6  7  1  0  0  0  0
  7  8  1  0  0  0  0
  7 22  1  1  0  0  0
  8 26  1  6  0  0  0
  8  9  1  0  0  0  0
  9 28  1  1  0  0  0
 10  9  1  0  0  0  0
 12 21  2  0  0  0  0
 13 12  1  0  0  0  0
 14 13  2  0  0  0  0
 14 15  1  0  0  0  0
 15 20  1  0  0  0  0
 16 15  2  0  0  0  0
 16 17  1  0  0  0  0
 17 18  2  0  0  0  0
 18 19  1  0  0  0  0
 20 21  1  0  0  0  0
 20 19  2  0  0  0  0
 22 23  1  0  0  0  0
 24  6  1  0  0  0  0
 25 24  1  0  0  0  0
 27 26  1  0  0  0  0
 28 29  1  0  0  0  0
 29 30  1  0  0  0  0
M  END
>  <minimizedAffinity>
-9.08440495

$$$$

 OpenBabel12271914393D

 30 33  0  0  1  0  0  0  0  0999 V2000
  -21.0130  -25.0940   -7.2940 C   0  0  1  0  0  0  0  0  0  0  0  0
  -21.2300  -25.2710   -8.7250 N   0  0  0  0  0  0  0  0  0  0  0  0
  -21.0590  -26.2010   -9.0470 H   0  0  0  0  0  0  0  0  0  0  0  0
  -22.6400  -25.0540   -8.8380 O   0  0  0  0  0  0  0  0  0  0  0  0
  -23.2800  -25.6950   -7.7440 C   0  0  2  0  0  0  0  0  0  0  0  0
  -23.7790  -27.0400   -8.2540 C   0  0  1  0  0  0  0  0  0  0  0  0
  -24.8130  -27.5970   -7.2930 C   0  0  2  0  0  0  0  0  0  0  0  0
  -26.0100  -26.6210   -7.2170 C   0  0  1  0  0  0  0  0  0  0  0  0
  -25.5900  -25.1630   -7.1130 C   0  0  2  0  0  0  0  0  0  0  0  0
  -24.2400  -24.8470   -7.1780 O   0  0  0  0  0  0  0  0  0  0  0  0
  -22.1770  -25.8390   -6.6790 C   0  0  0  0  0  0  0  0  0  0  0  0
  -19.6880  -25.6320   -6.8180 C   0  0  0  0  0  0  0  0  0  0  0  0
  -19.5980  -26.0480   -5.4990 C   0  0  0  0  0  0  0  0  0  0  0  0
  -18.4080  -26.5270   -4.9800 C   0  0  0  0  0  0  0  0  0  0  0  0
  -17.2730  -26.6060   -5.8060 C   0  0  0  0  0  0  0  0  0  0  0  0
  -16.0430  -27.0710   -5.3000 C   0  0  0  0  0  0  0  0  0  0  0  0
  -14.9310  -27.1370   -6.1260 C   0  0  0  0  0  0  0  0  0  0  0  0
  -15.0010  -26.7490   -7.4500 C   0  0  0  0  0  0  0  0  0  0  0  0
  -16.2020  -26.2900   -7.9600 C   0  0  0  0  0  0  0  0  0  0  0  0
  -17.3460  -26.2140   -7.1430 C   0  0  0  0  0  0  0  0  0  0  0  0
  -18.5720  -25.7370   -7.6400 C   0  0  0  0  0  0  0  0  0  0  0  0
  -24.2300  -27.8180   -6.0280 O   0  0  0  0  0  0  0  0  0  0  0  0
  -24.9430  -27.8980   -5.3510 H   0  0  0  0  0  0  0  0  0  0  0  0
  -24.3390  -26.9280   -9.5520 O   0  0  0  0  0  0  0  0  0  0  0  0
  -24.3850  -25.9770   -9.8040 H   0  0  0  0  0  0  0  0  0  0  0  0
  -26.8640  -26.7960   -8.3400 O   0  0  0  0  0  0  0  0  0  0  0  0
  -27.2240  -27.7010   -8.3640 H   0  0  0  0  0  0  0  0  0  0  0  0
  -26.0860  -24.5730   -5.7680 C   0  0  0  0  0  0  0  0  0  0  0  0
  -25.0370  -23.9420   -5.0460 O   0  0  0  0  0  0  0  0  0  0  0  0
  -25.3490  -23.0730   -4.7070 H   0  0  0  0  0  0  0  0  0  0  0  0
  1 12  1  1  0  0  0
  1 11  1  0  0  0  0
  2  1  1  0  0  0  0
  3  2  1  0  0  0  0
  4  2  1  0  0  0  0
  4  5  1  0  0  0  0
  5 10  1  0  0  0  0
  5 11  1  1  0  0  0
  6  5  1  1  0  0  0
  6  7  1  0  0  0  0
  7  8  1  0  0  0  0
  7 22  1  1  0  0  0
  8 26  1  6  0  0  0
  8  9  1  0  0  0  0
  9 28  1  1  0  0  0
 10  9  1  0  0  0  0
 12 13  2  0  0  0  0
 13 14  1  0  0  0  0
 15 16  1  0  0  0  0
 15 14  2  0  0  0  0
 17 16  2  0  0  0  0
 18 17  1  0  0  0  0
 19 18  2  0  0  0  0
 19 20  1  0  0  0  0
 20 15  1  0  0  0  0
 21 20  2  0  0  0  0
 21 12  1  0  0  0  0
 22 23  1  0  0  0  0
 24  6  1  0  0  0  0
 25 24  1  0  0  0  0
 27 26  1  0  0  0  0
 28 29  1  0  0  0  0
 29 30  1  0  0  0  0
M  END
>  <minimizedAffinity>
-9.04510117

$$$$

 OpenBabel12271914393D

 30 33  0  0  1  0  0  0  0  0999 V2000
  -14.2550  -25.5910  -11.7440 C   0  0  1  0  0  0  0  0  0  0  0  0
  -12.8790  -25.7440  -12.2050 N   0  0  0  0  0  0  0  0  0  0  0  0
  -12.4580  -26.6080  -11.9370 H   0  0  0  0  0  0  0  0  0  0  0  0
  -13.0500  -25.7970  -13.6250 O   0  0  0  0  0  0  0  0  0  0  0  0
  -14.1890  -26.5960  -13.9100 C   0  0  2  0  0  0  0  0  0  0  0  0
  -13.6750  -27.9880  -14.2490 C   0  0  1  0  0  0  0  0  0  0  0  0
  -14.7660  -28.7750  -14.9540 C   0  0  2  0  0  0  0  0  0  0  0  0
  -15.1420  -28.0520  -16.2680 C   0  0  1  0  0  0  0  0  0  0  0  0
  -15.2810  -26.5460  -16.1050 C   0  0  2  0  0  0  0  0  0  0  0  0
  -14.9900  -25.9740  -14.8750 O   0  0  0  0  0  0  0  0  0  0  0  0
  -15.0140  -26.5710  -12.6100 C   0  0  0  0  0  0  0  0  0  0  0  0
  -14.4300  -25.8830  -10.2770 C   0  0  0  0  0  0  0  0  0  0  0  0
  -13.2970  -26.1890   -9.5400 C   0  0  0  0  0  0  0  0  0  0  0  0
  -13.3800  -26.4960   -8.1930 C   0  0  0  0  0  0  0  0  0  0  0  0
  -14.6330  -26.4870   -7.5560 C   0  0  0  0  0  0  0  0  0  0  0  0
  -14.7520  -26.8160   -6.1910 C   0  0  0  0  0  0  0  0  0  0  0  0
  -15.9960  -26.8090   -5.5790 C   0  0  0  0  0  0  0  0  0  0  0  0
  -17.1380  -26.4860   -6.2850 C   0  0  0  0  0  0  0  0  0  0  0  0
  -17.0370  -26.1630   -7.6270 C   0  0  0  0  0  0  0  0  0  0  0  0
  -15.7850  -26.1620   -8.2720 C   0  0  0  0  0  0  0  0  0  0  0  0
  -15.6650  -25.8480   -9.6380 C   0  0  0  0  0  0  0  0  0  0  0  0
  -15.8780  -28.9340  -14.1010 O   0  0  0  0  0  0  0  0  0  0  0  0
  -16.6660  -29.1790  -14.6390 H   0  0  0  0  0  0  0  0  0  0  0  0
  -12.5190  -27.9300  -15.0660 O   0  0  0  0  0  0  0  0  0  0  0  0
  -12.3560  -26.9950  -15.3320 H   0  0  0  0  0  0  0  0  0  0  0  0
  -14.1870  -28.3390  -17.2820 O   0  0  0  0  0  0  0  0  0  0  0  0
  -14.1590  -29.2940  -17.4710 H   0  0  0  0  0  0  0  0  0  0  0  0
  -16.7380  -26.1210  -16.4220 C   0  0  0  0  0  0  0  0  0  0  0  0
  -17.6360  -26.4890  -15.3840 O   0  0  0  0  0  0  0  0  0  0  0  0
  -18.2310  -25.7330  -15.1820 H   0  0  0  0  0  0  0  0  0  0  0  0
  1 12  1  1  0  0  0
  2  3  1  0  0  0  0
  2  1  1  0  0  0  0
  4  2  1  0  0  0  0
  5  4  1  0  0  0  0
  5 11  1  1  0  0  0
  6  5  1  6  0  0  0
  7  6  1  0  0  0  0
  7 22  1  1  0  0  0
  8 26  1  6  0  0  0
  8  9  1  0  0  0  0
  8  7  1  0  0  0  0
  9 28  1  1  0  0  0
  9 10  1  0  0  0  0
 10  5  1  0  0  0  0
 11  1  1  0  0  0  0
 12 21  2  0  0  0  0
 12 13  1  0  0  0  0
 13 14  2  0  0  0  0
 14 15  1  0  0  0  0
 15 16  2  0  0  0  0
 16 17  1  0  0  0  0
 18 17  2  0  0  0  0
 19 18  1  0  0  0  0
 20 19  2  0  0  0  0
 20 15  1  0  0  0  0
 21 20  1  0  0  0  0
 23 22  1  0  0  0  0
 24  6  1  0  0  0  0
 25 24  1  0  0  0  0
 27 26  1  0  0  0  0
 28 29  1  0  0  0  0
 29 30  1  0  0  0  0
M  END
>  <minimizedAffinity>
-8.96257401

$$$$

 OpenBabel12271914393D

 30 33  0  0  1  0  0  0  0  0999 V2000
  -19.9850  -26.9830   -9.5370 C   0  0  1  0  0  0  0  0  0  0  0  0
  -20.3870  -26.2700  -10.7440 N   0  0  0  0  0  0  0  0  0  0  0  0
  -19.7510  -26.3790  -11.5070 H   0  0  0  0  0  0  0  0  0  0  0  0
  -21.5840  -26.9620  -11.1100 O   0  0  0  0  0  0  0  0  0  0  0  0
  -21.3750  -28.3540  -10.9140 C   0  0  2  0  0  0  0  0  0  0  0  0
  -21.0120  -28.9390  -12.2710 C   0  0  1  0  0  0  0  0  0  0  0  0
  -21.1770  -30.4480  -12.2350 C   0  0  2  0  0  0  0  0  0  0  0  0
  -22.6540  -30.7880  -11.9260 C   0  0  1  0  0  0  0  0  0  0  0  0
  -23.2460  -29.9360  -10.8140 C   0  0  2  0  0  0  0  0  0  0  0  0
  -22.4750  -28.9230  -10.2620 O   0  0  0  0  0  0  0  0  0  0  0  0
  -20.2130  -28.4320   -9.9060 C   0  0  0  0  0  0  0  0  0  0  0  0
  -18.5570  -26.7230   -9.1350 C   0  0  0  0  0  0  0  0  0  0  0  0
  -17.7350  -26.0860  -10.0510 C   0  0  0  0  0  0  0  0  0  0  0  0
  -16.4040  -25.8370   -9.7660 C   0  0  0  0  0  0  0  0  0  0  0  0
  -15.8770  -26.2250   -8.5210 C   0  0  0  0  0  0  0  0  0  0  0  0
  -14.5210  -26.0030   -8.2100 C   0  0  0  0  0  0  0  0  0  0  0  0
  -14.0140  -26.3970   -6.9810 C   0  0  0  0  0  0  0  0  0  0  0  0
  -14.8180  -27.0140   -6.0420 C   0  0  0  0  0  0  0  0  0  0  0  0
  -16.1520  -27.2390   -6.3340 C   0  0  0  0  0  0  0  0  0  0  0  0
  -16.6910  -26.8480   -7.5750 C   0  0  0  0  0  0  0  0  0  0  0  0
  -18.0400  -27.0800   -7.8930 C   0  0  0  0  0  0  0  0  0  0  0  0
  -20.2960  -31.0090  -11.2870 O   0  0  0  0  0  0  0  0  0  0  0  0
  -20.6000  -31.9200  -11.0620 H   0  0  0  0  0  0  0  0  0  0  0  0
  -21.8150  -28.3920  -13.3040 O   0  0  0  0  0  0  0  0  0  0  0  0
  -22.5150  -27.8250  -12.9050 H   0  0  0  0  0  0  0  0  0  0  0  0
  -23.4460  -30.6640  -13.1010 O   0  0  0  0  0  0  0  0  0  0  0  0
  -23.1410  -31.2790  -13.7910 H   0  0  0  0  0  0  0  0  0  0  0  0
  -23.6500  -30.8420   -9.6240 C   0  0  0  0  0  0  0  0  0  0  0  0
  -22.5230  -31.4690   -9.0270 O   0  0  0  0  0  0  0  0  0  0  0  0
  -22.5860  -31.3940   -8.0480 H   0  0  0  0  0  0  0  0  0  0  0  0
  1 12  1  6  0  0  0
  2  1  1  0  0  0  0
  3  2  1  0  0  0  0
  4  5  1  0  0  0  0
  4  2  1  0  0  0  0
  5 10  1  0  0  0  0
  5 11  1  1  0  0  0
  6  7  1  0  0  0  0
  6  5  1  1  0  0  0
  7  8  1  0  0  0  0
  7 22  1  1  0  0  0
  8 26  1  6  0  0  0
  8  9  1  0  0  0  0
  9 10  1  0  0  0  0
  9 28  1  1  0  0  0
 11  1  1  0  0  0  0
 12 21  2  0  0  0  0
 13 14  2  0  0  0  0
 13 12  1  0  0  0  0
 14 15  1  0  0  0  0
 15 16  2  0  0  0  0
 15 20  1  0  0  0  0
 16 17  1  0  0  0  0
 17 18  2  0  0  0  0
 19 18  1  0  0  0  0
 20 19  2  0  0  0  0
 21 20  1  0  0  0  0
 22 23  1  0  0  0  0
 24 25  1  0  0  0  0
 24  6  1  0  0  0  0
 27 26  1  0  0  0  0
 28 29  1  0  0  0  0
 29 30  1  0  0  0  0
M  END
>  <minimizedAffinity>
-8.64868069

$$$$

 OpenBabel12271914393D

 30 33  0  0  1  0  0  0  0  0999 V2000
  -16.0730  -25.5240   -9.0120 C   0  0  1  0  0  0  0  0  0  0  0  0
  -14.8080  -25.1060   -9.6060 N   0  0  0  0  0  0  0  0  0  0  0  0
  -14.1060  -25.8150   -9.5980 H   0  0  0  0  0  0  0  0  0  0  0  0
  -15.1760  -24.9110  -10.9750 O   0  0  0  0  0  0  0  0  0  0  0  0
  -16.0460  -25.9670  -11.3590 C   0  0  2  0  0  0  0  0  0  0  0  0
  -15.1910  -27.0010  -12.0780 C   0  0  1  0  0  0  0  0  0  0  0  0
  -16.0840  -27.9400  -12.8690 C   0  0  2  0  0  0  0  0  0  0  0  0
  -16.8670  -27.1240  -13.9240 C   0  0  1  0  0  0  0  0  0  0  0  0
  -17.4330  -25.8220  -13.3770 C   0  0  2  0  0  0  0  0  0  0  0  0
  -17.1410  -25.4600  -12.0700 O   0  0  0  0  0  0  0  0  0  0  0  0
  -16.6230  -26.4950  -10.0330 C   0  0  0  0  0  0  0  0  0  0  0  0
  -15.9170  -26.1620   -7.6570 C   0  0  0  0  0  0  0  0  0  0  0  0
  -14.7320  -26.8310   -7.3920 C   0  0  0  0  0  0  0  0  0  0  0  0
  -14.5250  -27.4660   -6.1800 C   0  0  0  0  0  0  0  0  0  0  0  0
  -15.5260  -27.4230   -5.1940 C   0  0  0  0  0  0  0  0  0  0  0  0
  -15.3520  -28.0770   -3.9590 C   0  0  0  0  0  0  0  0  0  0  0  0
  -16.3510  -28.0310   -2.9990 C   0  0  0  0  0  0  0  0  0  0  0  0
  -17.5320  -27.3520   -3.2290 C   0  0  0  0  0  0  0  0  0  0  0  0
  -17.7180  -26.7060   -4.4390 C   0  0  0  0  0  0  0  0  0  0  0  0
  -16.7180  -26.7370   -5.4300 C   0  0  0  0  0  0  0  0  0  0  0  0
  -16.8950  -26.0970   -6.6690 C   0  0  0  0  0  0  0  0  0  0  0  0
  -16.9450  -28.6390  -11.9960 O   0  0  0  0  0  0  0  0  0  0  0  0
  -17.6950  -29.0150  -12.5140 H   0  0  0  0  0  0  0  0  0  0  0  0
  -14.2520  -26.3870  -12.9440 O   0  0  0  0  0  0  0  0  0  0  0  0
  -14.4270  -25.4180  -12.9790 H   0  0  0  0  0  0  0  0  0  0  0  0
  -16.0430  -26.8530  -15.0510 O   0  0  0  0  0  0  0  0  0  0  0  0
  -15.7530  -27.6800  -15.4750 H   0  0  0  0  0  0  0  0  0  0  0  0
  -18.9810  -25.8540  -13.4590 C   0  0  0  0  0  0  0  0  0  0  0  0
  -19.4470  -26.9080  -14.2900 O   0  0  0  0  0  0  0  0  0  0  0  0
  -20.1870  -27.3760  -13.8430 H   0  0  0  0  0  0  0  0  0  0  0  0
  1 12  1  1  0  0  0
  2  3  1  0  0  0  0
  2  1  1  0  0  0  0
  4  2  1  0  0  0  0
  5  4  1  0  0  0  0
  5 11  1  1  0  0  0
  6  5  1  6  0  0  0
  7  6  1  0  0  0  0
  7 22  1  1  0  0  0
  8 26  1  6  0  0  0
  8  9  1  0  0  0  0
  8  7  1  0  0  0  0
  9 28  1  1  0  0  0
  9 10  1  0  0  0  0
 10  5  1  0  0  0  0
 11  1  1  0  0  0  0
 12 13  2  0  0  0  0
 12 21  1  0  0  0  0
 13 14  1  0  0  0  0
 14 15  2  0  0  0  0
 15 16  1  0  0  0  0
 16 17  2  0  0  0  0
 18 17  1  0  0  0  0
 19 18  2  0  0  0  0
 20 15  1  0  0  0  0
 20 19  1  0  0  0  0
 21 20  2  0  0  0  0
 23 22  1  0  0  0  0
 24  6  1  0  0  0  0
 25 24  1  0  0  0  0
 27 26  1  0  0  0  0
 29 30  1  0  0  0  0
 29 28  1  0  0  0  0
M  END
>  <minimizedAffinity>
-8.44717312

$$$$

 OpenBabel12271914393D

 30 33  0  0  1  0  0  0  0  0999 V2000
  -14.3930  -25.3340  -12.2980 C   0  0  1  0  0  0  0  0  0  0  0  0
  -13.0000  -25.7410  -12.4450 N   0  0  0  0  0  0  0  0  0  0  0  0
  -12.8310  -26.6940  -12.1970 H   0  0  0  0  0  0  0  0  0  0  0  0
  -12.8160  -25.6490  -13.8610 O   0  0  0  0  0  0  0  0  0  0  0  0
  -13.9770  -26.1630  -14.4990 C   0  0  2  0  0  0  0  0  0  0  0  0
  -13.6660  -27.6030  -14.8820 C   0  0  1  0  0  0  0  0  0  0  0  0
  -14.6720  -28.0840  -15.9130 C   0  0  2  0  0  0  0  0  0  0  0  0
  -14.5630  -27.1990  -17.1760 C   0  0  1  0  0  0  0  0  0  0  0  0
  -14.4520  -25.7150  -16.8630 C   0  0  2  0  0  0  0  0  0  0  0  0
  -14.3770  -25.3130  -15.5370 O   0  0  0  0  0  0  0  0  0  0  0  0
  -15.0820  -26.0610  -13.4310 C   0  0  0  0  0  0  0  0  0  0  0  0
  -14.9840  -25.6920  -10.9590 C   0  0  0  0  0  0  0  0  0  0  0  0
  -16.3660  -25.7250  -10.8520 C   0  0  0  0  0  0  0  0  0  0  0  0
  -16.9830  -26.0190   -9.6490 C   0  0  0  0  0  0  0  0  0  0  0  0
  -16.1980  -26.3020   -8.5170 C   0  0  0  0  0  0  0  0  0  0  0  0
  -16.7980  -26.5850   -7.2740 C   0  0  0  0  0  0  0  0  0  0  0  0
  -16.0100  -26.8550   -6.1660 C   0  0  0  0  0  0  0  0  0  0  0  0
  -14.6310  -26.8510   -6.2520 C   0  0  0  0  0  0  0  0  0  0  0  0
  -14.0280  -26.5730   -7.4660 C   0  0  0  0  0  0  0  0  0  0  0  0
  -14.8060  -26.2960   -8.6070 C   0  0  0  0  0  0  0  0  0  0  0  0
  -14.2100  -26.0000   -9.8450 C   0  0  0  0  0  0  0  0  0  0  0  0
  -15.9720  -28.0660  -15.3660 O   0  0  0  0  0  0  0  0  0  0  0  0
  -16.6320  -28.0960  -16.0980 H   0  0  0  0  0  0  0  0  0  0  0  0
  -12.3510  -27.7310  -15.3970 O   0  0  0  0  0  0  0  0  0  0  0  0
  -11.9540  -26.8350  -15.4990 H   0  0  0  0  0  0  0  0  0  0  0  0
  -13.4550  -27.6060  -17.9710 O   0  0  0  0  0  0  0  0  0  0  0  0
  -13.5610  -28.5280  -18.2660 H   0  0  0  0  0  0  0  0  0  0  0  0
  -15.6760  -24.9670  -17.4510 C   0  0  0  0  0  0  0  0  0  0  0  0
  -16.9030  -25.5710  -17.0670 O   0  0  0  0  0  0  0  0  0  0  0  0
  -17.5350  -24.8750  -16.7770 H   0  0  0  0  0  0  0  0  0  0  0  0
  1 12  1  1  0  0  0
  2  1  1  0  0  0  0
  2  3  1  0  0  0  0
  4  2  1  0  0  0  0
  5  4  1  0  0  0  0
  5 11  1  1  0  0  0
  6  5  1  6  0  0  0
  7 22  1  1  0  0  0
  7  6  1  0  0  0  0
  8 26  1  1  0  0  0
  8  9  1  0  0  0  0
  8  7  1  0  0  0  0
  9 28  1  1  0  0  0
  9 10  1  0  0  0  0
 10  5  1  0  0  0  0
 11  1  1  0  0  0  0
 12 13  2  0  0  0  0
 12 21  1  0  0  0  0
 13 14  1  0  0  0  0
 14 15  2  0  0  0  0
 15 16  1  0  0  0  0
 16 17  2  0  0  0  0
 18 17  1  0  0  0  0
 19 18  2  0  0  0  0
 20 15  1  0  0  0  0
 20 19  1  0  0  0  0
 21 20  2  0  0  0  0
 23 22  1  0  0  0  0
 24  6  1  0  0  0  0
 25 24  1  0  0  0  0
 27 26  1  0  0  0  0
 28 29  1  0  0  0  0
 29 30  1  0  0  0  0
M  END
>  <minimizedAffinity>
-8.42238045

$$$$

 OpenBabel12271914393D

 30 33  0  0  1  0  0  0  0  0999 V2000
  -16.8920  -27.2040  -10.3400 C   0  0  1  0  0  0  0  0  0  0  0  0
  -16.3610  -28.2780   -9.5080 N   0  0  0  0  0  0  0  0  0  0  0  0
  -15.4520  -28.0890   -9.1390 H   0  0  0  0  0  0  0  0  0  0  0  0
  -17.2630  -28.2620   -8.3970 O   0  0  0  0  0  0  0  0  0  0  0  0
  -17.5330  -26.9100   -8.0580 C   0  0  2  0  0  0  0  0  0  0  0  0
  -16.6150  -26.5570   -6.8960 C   0  0  1  0  0  0  0  0  0  0  0  0
  -17.1180  -25.2970   -6.2140 C   0  0  2  0  0  0  0  0  0  0  0  0
  -18.5400  -25.5530   -5.6630 C   0  0  1  0  0  0  0  0  0  0  0  0
  -19.4390  -26.2930   -6.6420 C   0  0  2  0  0  0  0  0  0  0  0  0
  -18.9050  -26.7260   -7.8480 O   0  0  0  0  0  0  0  0  0  0  0  0
  -17.2010  -26.1160   -9.3350 C   0  0  0  0  0  0  0  0  0  0  0  0
  -15.9290  -26.7340  -11.3980 C   0  0  0  0  0  0  0  0  0  0  0  0
  -14.6430  -26.4060  -10.9990 C   0  0  0  0  0  0  0  0  0  0  0  0
  -13.7090  -25.9400  -11.9080 C   0  0  0  0  0  0  0  0  0  0  0  0
  -14.0640  -25.8080  -13.2620 C   0  0  0  0  0  0  0  0  0  0  0  0
  -13.1410  -25.3170  -14.2070 C   0  0  0  0  0  0  0  0  0  0  0  0
  -13.5090  -25.1870  -15.5370 C   0  0  0  0  0  0  0  0  0  0  0  0
  -14.7780  -25.5280  -15.9640 C   0  0  0  0  0  0  0  0  0  0  0  0
  -15.6950  -26.0100  -15.0480 C   0  0  0  0  0  0  0  0  0  0  0  0
  -15.3460  -26.1530  -13.6910 C   0  0  0  0  0  0  0  0  0  0  0  0
  -16.2700  -26.6290  -12.7430 C   0  0  0  0  0  0  0  0  0  0  0  0
  -17.0880  -24.2130   -7.1170 O   0  0  0  0  0  0  0  0  0  0  0  0
  -17.6670  -23.4920   -6.7760 H   0  0  0  0  0  0  0  0  0  0  0  0
  -16.5390  -27.6150   -5.9550 O   0  0  0  0  0  0  0  0  0  0  0  0
  -17.1870  -28.3160   -6.2010 H   0  0  0  0  0  0  0  0  0  0  0  0
  -18.4740  -26.2690   -4.4370 O   0  0  0  0  0  0  0  0  0  0  0  0
  -17.9870  -25.7600   -3.7640 H   0  0  0  0  0  0  0  0  0  0  0  0
  -20.6430  -25.3950   -7.0240 C   0  0  0  0  0  0  0  0  0  0  0  0
  -21.8560  -25.8610   -6.4510 O   0  0  0  0  0  0  0  0  0  0  0  0
  -22.3480  -25.1040   -6.0610 H   0  0  0  0  0  0  0  0  0  0  0  0
  1 12  1  6  0  0  0
  1  2  1  0  0  0  0
  1 11  1  0  0  0  0
  2  3  1  0  0  0  0
  2  4  1  0  0  0  0
  4  5  1  0  0  0  0
  5 11  1  6  0  0  0
  5 10  1  0  0  0  0
  6  5  1  6  0  0  0
  6  7  1  0  0  0  0
  6 24  1  0  0  0  0
  7 22  1  6  0  0  0
  7  8  1  0  0  0  0
  8 26  1  1  0  0  0
  9 28  1  6  0  0  0
  9  8  1  0  0  0  0
 10  9  1  0  0  0  0
 12 13  1  0  0  0  0
 14 13  2  0  0  0  0
 15 14  1  0  0  0  0
 16 15  2  0  0  0  0
 17 16  1  0  0  0  0
 18 17  2  0  0  0  0
 18 19  1  0  0  0  0
 19 20  2  0  0  0  0
 20 15  1  0  0  0  0
 20 21  1  0  0  0  0
 21 12  2  0  0  0  0
 22 23  1  0  0  0  0
 25 24  1  0  0  0  0
 26 27  1  0  0  0  0
 28 29  1  0  0  0  0
 29 30  1  0  0  0  0
M  END
>  <minimizedAffinity>
-8.42204475

$$$$

 OpenBabel12271914393D

 30 33  0  0  1  0  0  0  0  0999 V2000
  -19.7620  -26.9890   -9.3060 C   0  0  1  0  0  0  0  0  0  0  0  0
  -19.9850  -26.2300  -10.5320 N   0  0  0  0  0  0  0  0  0  0  0  0
  -19.2760  -26.3630  -11.2220 H   0  0  0  0  0  0  0  0  0  0  0  0
  -21.1720  -26.8440  -11.0450 O   0  0  0  0  0  0  0  0  0  0  0  0
  -21.0660  -28.2480  -10.8620 C   0  0  2  0  0  0  0  0  0  0  0  0
  -20.5880  -28.8280  -12.1850 C   0  0  1  0  0  0  0  0  0  0  0  0
  -20.8420  -30.3250  -12.2060 C   0  0  2  0  0  0  0  0  0  0  0  0
  -22.3610  -30.5820  -12.0700 C   0  0  1  0  0  0  0  0  0  0  0  0
  -23.0240  -29.7180  -11.0090 C   0  0  2  0  0  0  0  0  0  0  0  0
  -22.2630  -28.7640  -10.3490 O   0  0  0  0  0  0  0  0  0  0  0  0
  -20.0290  -28.4150   -9.7350 C   0  0  0  0  0  0  0  0  0  0  0  0
  -18.3750  -26.8230   -8.7420 C   0  0  0  0  0  0  0  0  0  0  0  0
  -18.2050  -27.0140   -7.3800 C   0  0  0  0  0  0  0  0  0  0  0  0
  -16.9670  -26.8520   -6.7840 C   0  0  0  0  0  0  0  0  0  0  0  0
  -15.8580  -26.4990   -7.5730 C   0  0  0  0  0  0  0  0  0  0  0  0
  -14.5890  -26.3070   -6.9910 C   0  0  0  0  0  0  0  0  0  0  0  0
  -13.5070  -25.9530   -7.7820 C   0  0  0  0  0  0  0  0  0  0  0  0
  -13.6450  -25.7780   -9.1450 C   0  0  0  0  0  0  0  0  0  0  0  0
  -14.8850  -25.9620   -9.7300 C   0  0  0  0  0  0  0  0  0  0  0  0
  -16.0000  -26.3220   -8.9500 C   0  0  0  0  0  0  0  0  0  0  0  0
  -17.2710  -26.5010   -9.5250 C   0  0  0  0  0  0  0  0  0  0  0  0
  -20.1060  -30.9560  -11.1810 O   0  0  0  0  0  0  0  0  0  0  0  0
  -20.4840  -31.8510  -11.0140 H   0  0  0  0  0  0  0  0  0  0  0  0
  -21.2380  -28.2150  -13.2860 O   0  0  0  0  0  0  0  0  0  0  0  0
  -21.9450  -27.6150  -12.9520 H   0  0  0  0  0  0  0  0  0  0  0  0
  -23.0090  -30.3890  -13.3210 O   0  0  0  0  0  0  0  0  0  0  0  0
  -22.6650  -31.0080  -13.9890 H   0  0  0  0  0  0  0  0  0  0  0  0
  -23.6090  -30.6210   -9.8940 C   0  0  0  0  0  0  0  0  0  0  0  0
  -22.5990  -31.3710   -9.2340 O   0  0  0  0  0  0  0  0  0  0  0  0
  -22.7380  -31.3240   -8.2610 H   0  0  0  0  0  0  0  0  0  0  0  0
  1 12  1  6  0  0  0
  2  1  1  0  0  0  0
  3  2  1  0  0  0  0
  4  5  1  0  0  0  0
  4  2  1  0  0  0  0
  5 10  1  0  0  0  0
  5 11  1  1  0  0  0
  6  5  1  1  0  0  0
  7  6  1  0  0  0  0
  7  8  1  0  0  0  0
  7 22  1  1  0  0  0
  8 26  1  6  0  0  0
  8  9  1  0  0  0  0
  9 10  1  0  0  0  0
  9 28  1  1  0  0  0
 11  1  1  0  0  0  0
 12 13  2  0  0  0  0
 13 14  1  0  0  0  0
 15 16  1  0  0  0  0
 15 14  2  0  0  0  0
 17 16  2  0  0  0  0
 18 17  1  0  0  0  0
 19 18  2  0  0  0  0
 19 20  1  0  0  0  0
 20 15  1  0  0  0  0
 21 20  2  0  0  0  0
 21 12  1  0  0  0  0
 22 23  1  0  0  0  0
 24 25  1  0  0  0  0
 24  6  1  0  0  0  0
 27 26  1  0  0  0  0
 28 29  1  0  0  0  0
 29 30  1  0  0  0  0
M  END
>  <minimizedAffinity>
-8.39453697

$$$$

 OpenBabel12271914393D

 30 33  0  0  1  0  0  0  0  0999 V2000
  -20.3370  -25.4500   -6.8680 C   0  0  1  0  0  0  0  0  0  0  0  0
  -20.7820  -24.1770   -7.4250 N   0  0  0  0  0  0  0  0  0  0  0  0
  -20.7820  -24.1530   -8.4240 H   0  0  0  0  0  0  0  0  0  0  0  0
  -22.1530  -24.1400   -7.0160 O   0  0  0  0  0  0  0  0  0  0  0  0
  -22.7050  -25.4380   -7.1820 C   0  0  2  0  0  0  0  0  0  0  0  0
  -23.4440  -25.4330   -8.5130 C   0  0  1  0  0  0  0  0  0  0  0  0
  -24.3910  -26.6180   -8.5730 C   0  0  2  0  0  0  0  0  0  0  0  0
  -25.4260  -26.4970   -7.4300 C   0  0  1  0  0  0  0  0  0  0  0  0
  -24.8080  -26.0900   -6.1020 C   0  0  2  0  0  0  0  0  0  0  0  0
  -23.4530  -25.7960   -6.0540 O   0  0  0  0  0  0  0  0  0  0  0  0
  -21.4870  -26.3800   -7.1860 C   0  0  0  0  0  0  0  0  0  0  0  0
  -19.0390  -25.9400   -7.4550 C   0  0  0  0  0  0  0  0  0  0  0  0
  -19.0760  -26.5030   -8.7210 C   0  0  0  0  0  0  0  0  0  0  0  0
  -17.9300  -27.0010   -9.3160 C   0  0  0  0  0  0  0  0  0  0  0  0
  -16.7040  -26.9250   -8.6320 C   0  0  0  0  0  0  0  0  0  0  0  0
  -15.5250  -27.4420   -9.2040 C   0  0  0  0  0  0  0  0  0  0  0  0
  -14.3250  -27.3660   -8.5140 C   0  0  0  0  0  0  0  0  0  0  0  0
  -14.2580  -26.7900   -7.2600 C   0  0  0  0  0  0  0  0  0  0  0  0
  -15.4080  -26.2790   -6.6860 C   0  0  0  0  0  0  0  0  0  0  0  0
  -16.6390  -26.3440   -7.3660 C   0  0  0  0  0  0  0  0  0  0  0  0
  -17.8200  -25.8410   -6.7920 C   0  0  0  0  0  0  0  0  0  0  0  0
  -23.6630  -27.8250   -8.5020 O   0  0  0  0  0  0  0  0  0  0  0  0
  -24.2750  -28.5580   -8.2530 H   0  0  0  0  0  0  0  0  0  0  0  0
  -24.1680  -24.2290   -8.7010 O   0  0  0  0  0  0  0  0  0  0  0  0
  -24.1250  -23.6930   -7.8750 H   0  0  0  0  0  0  0  0  0  0  0  0
  -26.4500  -25.5770   -7.7860 O   0  0  0  0  0  0  0  0  0  0  0  0
  -26.9250  -25.8770   -8.5810 H   0  0  0  0  0  0  0  0  0  0  0  0
  -25.0210  -27.2190   -5.0620 C   0  0  0  0  0  0  0  0  0  0  0  0
  -24.3730  -28.4240   -5.4460 O   0  0  0  0  0  0  0  0  0  0  0  0
  -23.8920  -28.7990   -4.6740 H   0  0  0  0  0  0  0  0  0  0  0  0
  1 12  1  6  0  0  0
  2  4  1  0  0  0  0
  2  1  1  0  0  0  0
  3  2  1  0  0  0  0
  5 11  1  6  0  0  0
  5  4  1  0  0  0  0
  5 10  1  0  0  0  0
  6  5  1  1  0  0  0
  7  6  1  0  0  0  0
  7 22  1  1  0  0  0
  7  8  1  0  0  0  0
  8 26  1  6  0  0  0
  8  9  1  0  0  0  0
  9 10  1  0  0  0  0
  9 28  1  1  0  0  0
 11  1  1  0  0  0  0
 12 21  2  0  0  0  0
 13 12  1  0  0  0  0
 14 13  2  0  0  0  0
 14 15  1  0  0  0  0
 15 20  1  0  0  0  0
 16 15  2  0  0  0  0
 16 17  1  0  0  0  0
 17 18  2  0  0  0  0
 18 19  1  0  0  0  0
 20 21  1  0  0  0  0
 20 19  2  0  0  0  0
 22 23  1  0  0  0  0
 24  6  1  0  0  0  0
 24 25  1  0  0  0  0
 27 26  1  0  0  0  0
 29 28  1  0  0  0  0
 29 30  1  0  0  0  0
M  END
>  <minimizedAffinity>
-8.30820084

$$$$
