
 OpenBabel12271914453D

 42 46  0  0  1  0  0  0  0  0999 V2000
  -18.3560  -26.5850  -11.6520 C   0  0  1  0  0  0  0  0  0  0  0  0
  -16.8460  -26.0460  -11.4680 C   0  0  1  0  0  0  0  0  0  0  0  0
  -16.1460  -26.2090  -10.0910 C   0  0  0  0  0  0  0  0  0  0  0  0
  -16.7740  -26.9070   -9.0120 C   0  0  0  0  0  0  0  0  0  0  0  0
  -16.1070  -27.0540   -7.8120 C   0  0  0  0  0  0  0  0  0  0  0  0
  -16.6220  -27.6570   -6.7260 O   0  0  0  0  0  0  0  0  0  0  0  0
  -15.6020  -27.2610   -5.7360 C   0  0  0  0  0  0  0  0  0  0  0  0
  -14.3590  -26.8390   -6.4140 O   0  0  0  0  0  0  0  0  0  0  0  0
  -14.8600  -26.6000   -7.6580 C   0  0  0  0  0  0  0  0  0  0  0  0
  -14.1950  -25.9790   -8.6530 C   0  0  0  0  0  0  0  0  0  0  0  0
  -14.8260  -25.7570   -9.9140 C   0  0  0  0  0  0  0  0  0  0  0  0
  -14.0170  -25.0730  -10.9570 C   0  0  0  0  0  0  0  0  0  0  0  0
  -14.0430  -25.6650  -12.3090 C   0  0  0  0  0  0  0  0  0  0  0  0
  -14.7060  -27.0510  -12.3260 N   0  0  2  0  0  0  0  0  0  0  0  0
  -14.4790  -27.5410  -11.4240 H   0  0  0  0  0  0  0  0  0  0  0  0
  -14.3110  -27.7870  -13.5300 C   0  0  0  0  0  0  0  0  0  0  0  0
  -15.2560  -27.2360  -14.5980 C   0  0  0  0  0  0  0  0  0  0  0  0
  -16.3990  -26.5490  -13.9010 C   0  0  0  0  0  0  0  0  0  0  0  0
  -16.2000  -26.9790  -12.4370 C   0  0  2  0  0  0  0  0  0  0  0  0
  -16.9120  -28.3170  -12.2190 C   0  0  0  0  0  0  0  0  0  0  0  0
  -18.0880  -28.0640  -11.7730 C   0  0  1  0  0  0  0  0  0  0  0  0
  -19.0040  -28.9790  -11.3840 O   0  0  0  0  0  0  0  0  0  0  0  0
  -18.5670  -29.7830  -10.2710 C   0  0  0  0  0  0  0  0  0  0  0  0
  -19.2870  -26.1410  -10.5610 O   0  0  0  0  0  0  0  0  0  0  0  0
  -20.5260  -25.9890  -10.9720 C   0  0  0  0  0  0  0  0  0  0  0  0
  -20.9330  -25.9070  -12.2200 O   0  0  0  0  0  0  0  0  0  0  0  0
  -21.5370  -25.7470   -9.8590 C   0  0  2  0  0  0  0  0  0  0  0  0
  -22.1700  -24.4360   -9.9920 O   0  0  0  0  0  0  0  0  0  0  0  0
  -22.9000  -24.5860  -10.5750 H   0  0  0  0  0  0  0  0  0  0  0  0
  -20.6960  -25.9090   -8.5170 C   0  0  0  0  0  0  0  0  0  0  0  0
  -21.2590  -25.1460   -7.2620 C   0  0  0  0  0  0  0  0  0  0  0  0
  -21.8770  -24.0590   -7.3500 O   0  0  0  0  0  0  0  0  0  0  0  0
  -20.9120  -25.7920   -6.1650 O   0  0  0  0  0  0  0  0  0  0  0  0
  -19.4470  -26.0080   -5.9960 C   0  0  0  0  0  0  0  0  0  0  0  0
  -22.5150  -26.8700  -10.0600 C   0  0  0  0  0  0  0  0  0  0  0  0
  -24.0780  -26.5290   -9.9830 C   0  0  0  0  0  0  0  0  0  0  0  0
  -24.6590  -27.0850   -8.7220 C   0  0  0  0  0  0  0  0  0  0  0  0
  -25.0590  -26.0330   -7.6350 C   0  0  0  0  0  0  0  0  0  0  0  0
  -26.5750  -25.8840   -7.4340 C   0  0  0  0  0  0  0  0  0  0  0  0
  -24.4350  -26.5270   -6.3880 C   0  0  0  0  0  0  0  0  0  0  0  0
  -24.5150  -24.7510   -7.9510 O   0  0  0  0  0  0  0  0  0  0  0  0
  -23.6220  -24.7430   -7.6150 H   0  0  0  0  0  0  0  0  0  0  0  0
  1  2  1  0  0  0  0
  1 24  1  1  0  0  0
  2 19  1  6  0  0  0
  2  3  1  0  0  0  0
  3 11  2  0  0  0  0
  3  4  1  0  0  0  0
  4  5  2  0  0  0  0
  5  9  1  0  0  0  0
  5  6  1  0  0  0  0
  6  7  1  0  0  0  0
  8  7  1  0  0  0  0
  9  8  1  0  0  0  0
 10  9  2  0  0  0  0
 11 10  1  0  0  0  0
 12 11  1  0  0  0  0
 13 12  1  0  0  0  0
 14 19  1  6  0  0  0
 14 13  1  0  0  0  0
 14 15  1  0  0  0  0
 16 14  1  0  0  0  0
 17 18  1  0  0  0  0
 17 16  1  0  0  0  0
 19 18  1  6  0  0  0
 19 20  1  0  0  0  0
 20 21  1  0  0  0  0
 21  1  1  0  0  0  0
 21 22  1  1  0  0  0
 22 23  1  0  0  0  0
 25 24  1  0  0  0  0
 25 27  1  0  0  0  0
 26 25  2  0  0  0  0
 27 35  1  6  0  0  0
 27 30  1  0  0  0  0
 28 27  1  0  0  0  0
 29 28  1  0  0  0  0
 30 31  1  0  0  0  0
 31 33  1  0  0  0  0
 32 31  2  0  0  0  0
 33 34  1  0  0  0  0
 35 36  1  0  0  0  0
 36 37  1  0  0  0  0
 37 38  1  0  0  0  0
 38 39  1  0  0  0  0
 38 40  1  0  0  0  0
 41 38  1  0  0  0  0
 41 42  1  0  0  0  0
M  END
>  <minimizedAffinity>
-8.29200172

$$$$

 OpenBabel12271914453D

 42 46  0  0  1  0  0  0  0  0999 V2000
  -18.4060  -27.1840  -12.4820 C   0  0  1  0  0  0  0  0  0  0  0  0
  -17.0420  -26.7440  -13.2260 C   0  0  1  0  0  0  0  0  0  0  0  0
  -15.7890  -26.4030  -12.3730 C   0  0  0  0  0  0  0  0  0  0  0  0
  -15.7890  -26.5590  -10.9510 C   0  0  0  0  0  0  0  0  0  0  0  0
  -14.6470  -26.2710  -10.2320 C   0  0  0  0  0  0  0  0  0  0  0  0
  -14.5530  -26.3470   -8.8920 O   0  0  0  0  0  0  0  0  0  0  0  0
  -13.2510  -25.6770   -8.7120 C   0  0  0  0  0  0  0  0  0  0  0  0
  -12.4960  -25.6650   -9.9820 O   0  0  0  0  0  0  0  0  0  0  0  0
  -13.5220  -25.8990  -10.8480 C   0  0  0  0  0  0  0  0  0  0  0  0
  -13.4420  -25.7830  -12.1880 C   0  0  0  0  0  0  0  0  0  0  0  0
  -14.5890  -26.0300  -13.0030 C   0  0  0  0  0  0  0  0  0  0  0  0
  -14.4100  -25.8870  -14.4720 C   0  0  0  0  0  0  0  0  0  0  0  0
  -14.9680  -26.9640  -15.3130 C   0  0  0  0  0  0  0  0  0  0  0  0
  -15.4090  -28.1820  -14.4870 N   0  0  2  0  0  0  0  0  0  0  0  0
  -14.7500  -28.2890  -13.6740 H   0  0  0  0  0  0  0  0  0  0  0  0
  -15.5100  -29.3660  -15.3440 C   0  0  0  0  0  0  0  0  0  0  0  0
  -16.8870  -29.2090  -15.9900 C   0  0  0  0  0  0  0  0  0  0  0  0
  -17.6700  -28.2080  -15.1840 C   0  0  0  0  0  0  0  0  0  0  0  0
  -16.7940  -28.0360  -13.9310 C   0  0  2  0  0  0  0  0  0  0  0  0
  -17.1790  -29.1120  -12.9120 C   0  0  0  0  0  0  0  0  0  0  0  0
  -18.0550  -28.6050  -12.1220 C   0  0  1  0  0  0  0  0  0  0  0  0
  -18.5930  -29.2110  -11.0400 O   0  0  0  0  0  0  0  0  0  0  0  0
  -17.6060  -29.7900  -10.1640 C   0  0  0  0  0  0  0  0  0  0  0  0
  -18.7980  -26.2670  -11.3610 O   0  0  0  0  0  0  0  0  0  0  0  0
  -20.0980  -26.1910  -11.1880 C   0  0  0  0  0  0  0  0  0  0  0  0
  -20.9840  -25.7890  -12.0730 O   0  0  0  0  0  0  0  0  0  0  0  0
  -20.5660  -26.4710   -9.7650 C   0  0  2  0  0  0  0  0  0  0  0  0
  -21.0200  -27.8520   -9.6170 O   0  0  0  0  0  0  0  0  0  0  0  0
  -20.2340  -28.3370   -9.4160 H   0  0  0  0  0  0  0  0  0  0  0  0
  -21.7140  -25.3960   -9.5080 C   0  0  0  0  0  0  0  0  0  0  0  0
  -22.0630  -25.1190   -8.0000 C   0  0  0  0  0  0  0  0  0  0  0  0
  -21.8640  -24.0100   -7.4510 O   0  0  0  0  0  0  0  0  0  0  0  0
  -22.5080  -26.2280   -7.4420 O   0  0  0  0  0  0  0  0  0  0  0  0
  -23.9510  -26.5180   -7.6750 C   0  0  0  0  0  0  0  0  0  0  0  0
  -19.3300  -26.1910   -8.9570 C   0  0  0  0  0  0  0  0  0  0  0  0
  -18.9770  -27.1900   -7.7560 C   0  0  0  0  0  0  0  0  0  0  0  0
  -17.5040  -27.1730   -7.4980 C   0  0  0  0  0  0  0  0  0  0  0  0
  -17.0140  -26.1590   -6.4110 C   0  0  0  0  0  0  0  0  0  0  0  0
  -18.1120  -25.7070   -5.4350 C   0  0  0  0  0  0  0  0  0  0  0  0
  -15.9560  -26.8830   -5.6720 C   0  0  0  0  0  0  0  0  0  0  0  0
  -16.4460  -25.0010   -7.0230 O   0  0  0  0  0  0  0  0  0  0  0  0
  -15.5360  -25.2140   -7.2190 H   0  0  0  0  0  0  0  0  0  0  0  0
  1 21  1  0  0  0  0
  1 24  1  1  0  0  0
  2 19  1  6  0  0  0
  2  1  1  0  0  0  0
  2  3  1  0  0  0  0
  3  4  1  0  0  0  0
  4  5  2  0  0  0  0
  5  6  1  0  0  0  0
  6  7  1  0  0  0  0
  8  7  1  0  0  0  0
  9  5  1  0  0  0  0
  9  8  1  0  0  0  0
 10  9  2  0  0  0  0
 11  3  2  0  0  0  0
 11 10  1  0  0  0  0
 12 11  1  0  0  0  0
 13 14  1  0  0  0  0
 13 12  1  0  0  0  0
 14 19  1  1  0  0  0
 14 15  1  0  0  0  0
 16 14  1  0  0  0  0
 17 16  1  0  0  0  0
 17 18  1  0  0  0  0
 19 18  1  6  0  0  0
 19 20  1  0  0  0  0
 20 21  1  0  0  0  0
 21 22  1  1  0  0  0
 22 23  1  0  0  0  0
 24 25  1  0  0  0  0
 25 27  1  0  0  0  0
 26 25  2  0  0  0  0
 27 28  1  0  0  0  0
 27 30  1  1  0  0  0
 27 35  1  0  0  0  0
 28 29  1  0  0  0  0
 30 31  1  0  0  0  0
 31 32  2  0  0  0  0
 31 33  1  0  0  0  0
 34 33  1  0  0  0  0
 35 36  1  0  0  0  0
 36 37  1  0  0  0  0
 37 38  1  0  0  0  0
 38 40  1  0  0  0  0
 38 39  1  0  0  0  0
 41 38  1  0  0  0  0
 42 41  1  0  0  0  0
M  END
>  <minimizedAffinity>
-8.26349449

$$$$

 OpenBabel12271914453D

 42 46  0  0  1  0  0  0  0  0999 V2000
  -18.4410  -26.5980  -11.3160 C   0  0  1  0  0  0  0  0  0  0  0  0
  -16.9470  -26.0110  -11.1520 C   0  0  1  0  0  0  0  0  0  0  0  0
  -16.2090  -26.1810   -9.7960 C   0  0  0  0  0  0  0  0  0  0  0  0
  -16.7870  -26.9260   -8.7200 C   0  0  0  0  0  0  0  0  0  0  0  0
  -16.0880  -27.0770   -7.5400 C   0  0  0  0  0  0  0  0  0  0  0  0
  -16.5550  -27.7240   -6.4570 O   0  0  0  0  0  0  0  0  0  0  0  0
  -15.5270  -27.3160   -5.4810 C   0  0  0  0  0  0  0  0  0  0  0  0
  -14.3160  -26.8330   -6.1770 O   0  0  0  0  0  0  0  0  0  0  0  0
  -14.8540  -26.5820   -7.4030 C   0  0  0  0  0  0  0  0  0  0  0  0
  -14.2350  -25.9150   -8.3970 C   0  0  0  0  0  0  0  0  0  0  0  0
  -14.9030  -25.6860   -9.6380 C   0  0  0  0  0  0  0  0  0  0  0  0
  -14.1430  -24.9490  -10.6810 C   0  0  0  0  0  0  0  0  0  0  0  0
  -14.1800  -25.5090  -12.0460 C   0  0  0  0  0  0  0  0  0  0  0  0
  -14.7940  -26.9180  -12.0830 N   0  0  2  0  0  0  0  0  0  0  0  0
  -14.5280  -27.4200  -11.1980 H   0  0  0  0  0  0  0  0  0  0  0  0
  -14.4010  -27.6100  -13.3130 C   0  0  0  0  0  0  0  0  0  0  0  0
  -15.3900  -27.0680  -14.3460 C   0  0  0  0  0  0  0  0  0  0  0  0
  -16.5400  -26.4380  -13.6070 C   0  0  0  0  0  0  0  0  0  0  0  0
  -16.2910  -26.8960  -12.1590 C   0  0  2  0  0  0  0  0  0  0  0  0
  -16.9500  -28.2630  -11.9570 C   0  0  0  0  0  0  0  0  0  0  0  0
  -18.1240  -28.0630  -11.4790 C   0  0  1  0  0  0  0  0  0  0  0  0
  -18.9980  -29.0200  -11.0920 O   0  0  0  0  0  0  0  0  0  0  0  0
  -18.4840  -29.8700  -10.0490 C   0  0  0  0  0  0  0  0  0  0  0  0
  -19.3610  -26.2140  -10.1940 O   0  0  0  0  0  0  0  0  0  0  0  0
  -20.5260  -25.7720  -10.6110 C   0  0  0  0  0  0  0  0  0  0  0  0
  -20.7340  -24.9130  -11.5860 O   0  0  0  0  0  0  0  0  0  0  0  0
  -21.7130  -26.2140   -9.7650 C   0  0  2  0  0  0  0  0  0  0  0  0
  -22.8810  -25.3690  -10.0060 O   0  0  0  0  0  0  0  0  0  0  0  0
  -23.3080  -25.7670  -10.7490 H   0  0  0  0  0  0  0  0  0  0  0  0
  -21.1780  -26.1420   -8.2660 C   0  0  0  0  0  0  0  0  0  0  0  0
  -21.9790  -25.1920   -7.3010 C   0  0  0  0  0  0  0  0  0  0  0  0
  -22.0550  -23.9530   -7.4780 O   0  0  0  0  0  0  0  0  0  0  0  0
  -22.4610  -25.8960   -6.2950 O   0  0  0  0  0  0  0  0  0  0  0  0
  -23.8690  -26.3550   -6.4620 C   0  0  0  0  0  0  0  0  0  0  0  0
  -21.9310  -27.6270  -10.2260 C   0  0  0  0  0  0  0  0  0  0  0  0
  -23.2100  -27.9290  -11.1440 C   0  0  0  0  0  0  0  0  0  0  0  0
  -22.7680  -28.4390  -12.4780 C   0  0  0  0  0  0  0  0  0  0  0  0
  -22.5020  -27.3490  -13.5690 C   0  0  0  0  0  0  0  0  0  0  0  0
  -21.0330  -27.2480  -14.0110 C   0  0  0  0  0  0  0  0  0  0  0  0
  -23.3420  -27.7550  -14.7180 C   0  0  0  0  0  0  0  0  0  0  0  0
  -22.9280  -26.0650  -13.1120 O   0  0  0  0  0  0  0  0  0  0  0  0
  -23.8630  -26.0060  -13.2960 H   0  0  0  0  0  0  0  0  0  0  0  0
  1  2  1  0  0  0  0
  1 24  1  1  0  0  0
  2 19  1  6  0  0  0
  2  3  1  0  0  0  0
  3 11  2  0  0  0  0
  3  4  1  0  0  0  0
  4  5  2  0  0  0  0
  5  9  1  0  0  0  0
  5  6  1  0  0  0  0
  6  7  1  0  0  0  0
  8  7  1  0  0  0  0
  9  8  1  0  0  0  0
 10  9  2  0  0  0  0
 11 10  1  0  0  0  0
 12 11  1  0  0  0  0
 13 12  1  0  0  0  0
 14 19  1  6  0  0  0
 14 13  1  0  0  0  0
 14 15  1  0  0  0  0
 16 14  1  0  0  0  0
 17 18  1  0  0  0  0
 17 16  1  0  0  0  0
 19 18  1  6  0  0  0
 19 20  1  0  0  0  0
 20 21  1  0  0  0  0
 21  1  1  0  0  0  0
 21 22  1  1  0  0  0
 22 23  1  0  0  0  0
 25 24  1  0  0  0  0
 25 27  1  0  0  0  0
 26 25  2  0  0  0  0
 27 35  1  6  0  0  0
 27 30  1  0  0  0  0
 28 27  1  0  0  0  0
 29 28  1  0  0  0  0
 30 31  1  0  0  0  0
 31 33  1  0  0  0  0
 32 31  2  0  0  0  0
 34 33  1  0  0  0  0
 36 35  1  0  0  0  0
 37 36  1  0  0  0  0
 38 41  1  0  0  0  0
 38 37  1  0  0  0  0
 39 38  1  0  0  0  0
 40 38  1  0  0  0  0
 42 41  1  0  0  0  0
M  END
>  <minimizedAffinity>
-8.14414883

$$$$

 OpenBabel12271914453D

 42 46  0  0  1  0  0  0  0  0999 V2000
  -18.3990  -26.7620  -11.7710 C   0  0  1  0  0  0  0  0  0  0  0  0
  -16.9170  -26.1560  -11.5640 C   0  0  1  0  0  0  0  0  0  0  0  0
  -16.2470  -26.2510  -10.1660 C   0  0  0  0  0  0  0  0  0  0  0  0
  -16.8740  -26.9450   -9.0830 C   0  0  0  0  0  0  0  0  0  0  0  0
  -16.2340  -27.0300   -7.8640 C   0  0  0  0  0  0  0  0  0  0  0  0
  -16.7520  -27.6240   -6.7730 O   0  0  0  0  0  0  0  0  0  0  0  0
  -15.7750  -27.1580   -5.7700 C   0  0  0  0  0  0  0  0  0  0  0  0
  -14.5330  -26.7030   -6.4280 O   0  0  0  0  0  0  0  0  0  0  0  0
  -15.0110  -26.5200   -7.6910 C   0  0  0  0  0  0  0  0  0  0  0  0
  -14.3460  -25.9000   -8.6860 C   0  0  0  0  0  0  0  0  0  0  0  0
  -14.9520  -25.7390   -9.9690 C   0  0  0  0  0  0  0  0  0  0  0  0
  -14.1450  -25.0520  -11.0100 C   0  0  0  0  0  0  0  0  0  0  0  0
  -14.1120  -25.6820  -12.3450 C   0  0  0  0  0  0  0  0  0  0  0  0
  -14.7160  -27.0940  -12.3390 N   0  0  2  0  0  0  0  0  0  0  0  0
  -14.4920  -27.5490  -11.4170 H   0  0  0  0  0  0  0  0  0  0  0  0
  -14.2590  -27.8460  -13.5110 C   0  0  0  0  0  0  0  0  0  0  0  0
  -15.1980  -27.3650  -14.6180 C   0  0  0  0  0  0  0  0  0  0  0  0
  -16.3860  -26.7070  -13.9700 C   0  0  0  0  0  0  0  0  0  0  0  0
  -16.2080  -27.0870  -12.4900 C   0  0  2  0  0  0  0  0  0  0  0  0
  -16.8700  -28.4480  -12.2510 C   0  0  0  0  0  0  0  0  0  0  0  0
  -18.0670  -28.2320  -11.8420 C   0  0  1  0  0  0  0  0  0  0  0  0
  -18.9540  -29.1730  -11.4500 O   0  0  0  0  0  0  0  0  0  0  0  0
  -19.7920  -29.6460  -12.5240 C   0  0  0  0  0  0  0  0  0  0  0  0
  -19.3750  -26.3280  -10.7170 O   0  0  0  0  0  0  0  0  0  0  0  0
  -20.5670  -26.0580  -11.1990 C   0  0  0  0  0  0  0  0  0  0  0  0
  -20.8980  -25.9790  -12.4700 O   0  0  0  0  0  0  0  0  0  0  0  0
  -21.6020  -25.6660  -10.1520 C   0  0  2  0  0  0  0  0  0  0  0  0
  -22.0670  -24.2950  -10.3520 O   0  0  0  0  0  0  0  0  0  0  0  0
  -22.7770  -24.3770  -10.9710 H   0  0  0  0  0  0  0  0  0  0  0  0
  -20.8590  -25.8850   -8.7610 C   0  0  0  0  0  0  0  0  0  0  0  0
  -21.4880  -25.1410   -7.5260 C   0  0  0  0  0  0  0  0  0  0  0  0
  -22.1810  -24.1020   -7.6420 O   0  0  0  0  0  0  0  0  0  0  0  0
  -21.1080  -25.7390   -6.4140 O   0  0  0  0  0  0  0  0  0  0  0  0
  -19.6380  -25.9380   -6.2740 C   0  0  0  0  0  0  0  0  0  0  0  0
  -22.6930  -26.6740  -10.3820 C   0  0  0  0  0  0  0  0  0  0  0  0
  -22.3290  -28.2250  -10.2170 C   0  0  0  0  0  0  0  0  0  0  0  0
  -23.5180  -29.0650  -10.5620 C   0  0  0  0  0  0  0  0  0  0  0  0
  -23.4470  -30.5620  -10.1120 C   0  0  0  0  0  0  0  0  0  0  0  0
  -24.5030  -30.9530   -9.0650 C   0  0  0  0  0  0  0  0  0  0  0  0
  -23.6640  -31.3370  -11.3530 C   0  0  0  0  0  0  0  0  0  0  0  0
  -22.1540  -30.8700   -9.5890 O   0  0  0  0  0  0  0  0  0  0  0  0
  -21.6010  -31.0800  -10.3380 H   0  0  0  0  0  0  0  0  0  0  0  0
  1  2  1  0  0  0  0
  1 24  1  1  0  0  0
  2 19  1  6  0  0  0
  2  3  1  0  0  0  0
  3 11  2  0  0  0  0
  3  4  1  0  0  0  0
  4  5  2  0  0  0  0
  5  9  1  0  0  0  0
  5  6  1  0  0  0  0
  6  7  1  0  0  0  0
  8  7  1  0  0  0  0
  9  8  1  0  0  0  0
 10  9  2  0  0  0  0
 11 10  1  0  0  0  0
 12 11  1  0  0  0  0
 13 14  1  0  0  0  0
 13 12  1  0  0  0  0
 14 19  1  6  0  0  0
 14 15  1  0  0  0  0
 16 14  1  0  0  0  0
 17 18  1  0  0  0  0
 17 16  1  0  0  0  0
 19 18  1  6  0  0  0
 19 20  1  0  0  0  0
 20 21  1  0  0  0  0
 21  1  1  0  0  0  0
 21 22  1  1  0  0  0
 23 22  1  0  0  0  0
 25 24  1  0  0  0  0
 25 27  1  0  0  0  0
 26 25  2  0  0  0  0
 27 35  1  6  0  0  0
 27 30  1  0  0  0  0
 28 27  1  0  0  0  0
 29 28  1  0  0  0  0
 30 31  1  0  0  0  0
 31 33  1  0  0  0  0
 32 31  2  0  0  0  0
 33 34  1  0  0  0  0
 35 36  1  0  0  0  0
 37 36  1  0  0  0  0
 37 38  1  0  0  0  0
 38 41  1  0  0  0  0
 38 39  1  0  0  0  0
 40 38  1  0  0  0  0
 42 41  1  0  0  0  0
M  END
>  <minimizedAffinity>
-8.06423759

$$$$

 OpenBabel12271914453D

 42 46  0  0  1  0  0  0  0  0999 V2000
  -17.7950  -27.9990  -10.0190 C   0  0  1  0  0  0  0  0  0  0  0  0
  -16.6810  -27.5780   -8.9300 C   0  0  1  0  0  0  0  0  0  0  0  0
  -15.3640  -26.9080   -9.4110 C   0  0  0  0  0  0  0  0  0  0  0  0
  -15.1580  -26.5710  -10.7870 C   0  0  0  0  0  0  0  0  0  0  0  0
  -13.9860  -25.9520  -11.1700 C   0  0  0  0  0  0  0  0  0  0  0  0
  -13.6760  -25.6300  -12.4390 O   0  0  0  0  0  0  0  0  0  0  0  0
  -12.2550  -25.2810  -12.2500 C   0  0  0  0  0  0  0  0  0  0  0  0
  -11.9750  -25.0040  -10.8260 O   0  0  0  0  0  0  0  0  0  0  0  0
  -13.0600  -25.6120  -10.2690 C   0  0  0  0  0  0  0  0  0  0  0  0
  -13.2180  -25.8550   -8.9520 C   0  0  0  0  0  0  0  0  0  0  0  0
  -14.3870  -26.5230   -8.4770 C   0  0  0  0  0  0  0  0  0  0  0  0
  -14.4830  -26.7420   -7.0100 C   0  0  0  0  0  0  0  0  0  0  0  0
  -15.7740  -26.4120   -6.3750 C   0  0  0  0  0  0  0  0  0  0  0  0
  -16.7110  -25.6450   -7.3210 N   0  0  2  0  0  0  0  0  0  0  0  0
  -16.1270  -25.0200   -7.9330 H   0  0  0  0  0  0  0  0  0  0  0  0
  -17.7440  -24.9450   -6.5530 C   0  0  0  0  0  0  0  0  0  0  0  0
  -18.7800  -26.0390   -6.2900 C   0  0  0  0  0  0  0  0  0  0  0  0
  -18.5190  -27.1700   -7.2470 C   0  0  0  0  0  0  0  0  0  0  0  0
  -17.4980  -26.5510   -8.2190 C   0  0  2  0  0  0  0  0  0  0  0  0
  -18.2600  -25.8260   -9.3320 C   0  0  0  0  0  0  0  0  0  0  0  0
  -18.3920  -26.6450  -10.3110 C   0  0  1  0  0  0  0  0  0  0  0  0
  -18.9430  -26.3640  -11.5130 O   0  0  0  0  0  0  0  0  0  0  0  0
  -18.3130  -25.2520  -12.1800 C   0  0  0  0  0  0  0  0  0  0  0  0
  -17.2360  -28.7690  -11.1790 O   0  0  0  0  0  0  0  0  0  0  0  0
  -18.1650  -29.2310  -11.9860 C   0  0  0  0  0  0  0  0  0  0  0  0
  -19.2560  -29.8770  -11.6360 O   0  0  0  0  0  0  0  0  0  0  0  0
  -17.8360  -29.1080  -13.4680 C   0  0  2  0  0  0  0  0  0  0  0  0
  -18.7010  -28.1310  -14.1260 O   0  0  0  0  0  0  0  0  0  0  0  0
  -18.2620  -27.3040  -13.9960 H   0  0  0  0  0  0  0  0  0  0  0  0
  -18.0060  -30.5870  -14.0350 C   0  0  0  0  0  0  0  0  0  0  0  0
  -18.9900  -30.7420  -15.2520 C   0  0  0  0  0  0  0  0  0  0  0  0
  -20.0420  -31.4210  -15.1910 O   0  0  0  0  0  0  0  0  0  0  0  0
  -18.4890  -30.1210  -16.3020 O   0  0  0  0  0  0  0  0  0  0  0  0
  -17.6710  -30.9760  -17.2100 C   0  0  0  0  0  0  0  0  0  0  0  0
  -16.3990  -28.6670  -13.4450 C   0  0  0  0  0  0  0  0  0  0  0  0
  -15.5050  -28.9520  -14.7440 C   0  0  0  0  0  0  0  0  0  0  0  0
  -14.1020  -28.4940  -14.5040 C   0  0  0  0  0  0  0  0  0  0  0  0
  -13.3270  -27.9840  -15.7650 C   0  0  0  0  0  0  0  0  0  0  0  0
  -13.8880  -28.5020  -17.0980 C   0  0  0  0  0  0  0  0  0  0  0  0
  -13.4510  -26.5100  -15.7100 C   0  0  0  0  0  0  0  0  0  0  0  0
  -11.9460  -28.3390  -15.6850 O   0  0  0  0  0  0  0  0  0  0  0  0
  -11.5210  -27.6620  -15.1630 H   0  0  0  0  0  0  0  0  0  0  0  0
  1 24  1  6  0  0  0
  1  2  1  0  0  0  0
  2 19  1  1  0  0  0
  3  2  1  0  0  0  0
  3 11  2  0  0  0  0
  4  3  1  0  0  0  0
  5  4  2  0  0  0  0
  5  9  1  0  0  0  0
  6  7  1  0  0  0  0
  6  5  1  0  0  0  0
  7  8  1  0  0  0  0
  8  9  1  0  0  0  0
  9 10  2  0  0  0  0
 10 11  1  0  0  0  0
 11 12  1  0  0  0  0
 12 13  1  0  0  0  0
 14 19  1  6  0  0  0
 14 16  1  0  0  0  0
 14 13  1  0  0  0  0
 15 14  1  0  0  0  0
 16 17  1  0  0  0  0
 18 17  1  0  0  0  0
 19 20  1  6  0  0  0
 19 18  1  0  0  0  0
 21 22  1  6  0  0  0
 21  1  1  0  0  0  0
 21 20  1  0  0  0  0
 23 22  1  0  0  0  0
 25 26  2  0  0  0  0
 25 24  1  0  0  0  0
 27 30  1  6  0  0  0
 27 35  1  0  0  0  0
 27 25  1  0  0  0  0
 28 29  1  0  0  0  0
 28 27  1  0  0  0  0
 31 32  2  0  0  0  0
 31 30  1  0  0  0  0
 33 31  1  0  0  0  0
 34 33  1  0  0  0  0
 36 37  1  0  0  0  0
 36 35  1  0  0  0  0
 38 40  1  0  0  0  0
 38 41  1  0  0  0  0
 38 37  1  0  0  0  0
 39 38  1  0  0  0  0
 41 42  1  0  0  0  0
M  END
>  <minimizedAffinity>
-7.94904757

$$$$

 OpenBabel12271914453D

 42 46  0  0  1  0  0  0  0  0999 V2000
  -17.8210  -27.9650  -10.0120 C   0  0  1  0  0  0  0  0  0  0  0  0
  -16.6190  -27.5390   -9.0220 C   0  0  1  0  0  0  0  0  0  0  0  0
  -15.3400  -26.8890   -9.6180 C   0  0  0  0  0  0  0  0  0  0  0  0
  -15.2420  -26.5750  -11.0100 C   0  0  0  0  0  0  0  0  0  0  0  0
  -14.0990  -25.9730  -11.4960 C   0  0  0  0  0  0  0  0  0  0  0  0
  -13.8900  -25.6720  -12.7900 O   0  0  0  0  0  0  0  0  0  0  0  0
  -12.4550  -25.3350  -12.7210 C   0  0  0  0  0  0  0  0  0  0  0  0
  -12.0590  -25.0400  -11.3280 O   0  0  0  0  0  0  0  0  0  0  0  0
  -13.1010  -25.6290  -10.6770 C   0  0  0  0  0  0  0  0  0  0  0  0
  -13.1550  -25.8510   -9.3480 C   0  0  0  0  0  0  0  0  0  0  0  0
  -14.2880  -26.5010   -8.7700 C   0  0  0  0  0  0  0  0  0  0  0  0
  -14.2680  -26.6970   -7.2980 C   0  0  0  0  0  0  0  0  0  0  0  0
  -15.5010  -26.3450   -6.5660 C   0  0  0  0  0  0  0  0  0  0  0  0
  -16.5040  -25.5830   -7.4450 N   0  0  2  0  0  0  0  0  0  0  0  0
  -15.9650  -24.9730   -8.1130 H   0  0  0  0  0  0  0  0  0  0  0  0
  -17.4660  -24.8620   -6.6080 C   0  0  0  0  0  0  0  0  0  0  0  0
  -18.4860  -25.9420   -6.2470 C   0  0  0  0  0  0  0  0  0  0  0  0
  -18.3130  -27.0890   -7.2040 C   0  0  0  0  0  0  0  0  0  0  0  0
  -17.3680  -26.4940   -8.2640 C   0  0  2  0  0  0  0  0  0  0  0  0
  -18.2100  -25.7780   -9.3230 C   0  0  0  0  0  0  0  0  0  0  0  0
  -18.4280  -26.6100  -10.2760 C   0  0  1  0  0  0  0  0  0  0  0  0
  -19.0710  -26.3410  -11.4340 O   0  0  0  0  0  0  0  0  0  0  0  0
  -18.4610  -25.2750  -12.1880 C   0  0  0  0  0  0  0  0  0  0  0  0
  -17.3640  -28.7580  -11.2010 O   0  0  0  0  0  0  0  0  0  0  0  0
  -18.3460  -29.3810  -11.8130 C   0  0  0  0  0  0  0  0  0  0  0  0
  -19.3540  -30.0040  -11.2420 O   0  0  0  0  0  0  0  0  0  0  0  0
  -18.1860  -29.4870  -13.3240 C   0  0  2  0  0  0  0  0  0  0  0  0
  -17.8800  -30.8570  -13.7310 O   0  0  0  0  0  0  0  0  0  0  0  0
  -18.7260  -31.2680  -13.8270 H   0  0  0  0  0  0  0  0  0  0  0  0
  -17.0280  -28.4510  -13.6730 C   0  0  0  0  0  0  0  0  0  0  0  0
  -15.8580  -29.0090  -14.5650 C   0  0  0  0  0  0  0  0  0  0  0  0
  -16.0560  -29.7560  -15.5520 O   0  0  0  0  0  0  0  0  0  0  0  0
  -14.7020  -28.6240  -14.0600 O   0  0  0  0  0  0  0  0  0  0  0  0
  -13.5550  -28.6560  -15.0130 C   0  0  0  0  0  0  0  0  0  0  0  0
  -19.5280  -29.0350  -13.8250 C   0  0  0  0  0  0  0  0  0  0  0  0
  -19.6960  -28.7770  -15.3970 C   0  0  0  0  0  0  0  0  0  0  0  0
  -20.2440  -30.0020  -16.0570 C   0  0  0  0  0  0  0  0  0  0  0  0
  -19.3250  -30.6620  -17.1370 C   0  0  0  0  0  0  0  0  0  0  0  0
  -20.0780  -31.5360  -18.1530 C   0  0  0  0  0  0  0  0  0  0  0  0
  -18.6870  -29.5230  -17.8340 C   0  0  0  0  0  0  0  0  0  0  0  0
  -18.3120  -31.4560  -16.5190 O   0  0  0  0  0  0  0  0  0  0  0  0
  -17.6000  -30.8620  -16.2920 H   0  0  0  0  0  0  0  0  0  0  0  0
  1 24  1  6  0  0  0
  1  2  1  0  0  0  0
  2 19  1  1  0  0  0
  3  2  1  0  0  0  0
  3 11  2  0  0  0  0
  4  3  1  0  0  0  0
  5  4  2  0  0  0  0
  5  9  1  0  0  0  0
  6  7  1  0  0  0  0
  6  5  1  0  0  0  0
  7  8  1  0  0  0  0
  8  9  1  0  0  0  0
  9 10  2  0  0  0  0
 10 11  1  0  0  0  0
 11 12  1  0  0  0  0
 12 13  1  0  0  0  0
 14 19  1  6  0  0  0
 14 16  1  0  0  0  0
 14 13  1  0  0  0  0
 15 14  1  0  0  0  0
 16 17  1  0  0  0  0
 18 17  1  0  0  0  0
 19 20  1  6  0  0  0
 19 18  1  0  0  0  0
 21 22  1  6  0  0  0
 21  1  1  0  0  0  0
 21 20  1  0  0  0  0
 23 22  1  0  0  0  0
 25 26  2  0  0  0  0
 25 24  1  0  0  0  0
 27 35  1  6  0  0  0
 27 25  1  0  0  0  0
 28 27  1  0  0  0  0
 29 28  1  0  0  0  0
 30 27  1  0  0  0  0
 31 33  1  0  0  0  0
 31 30  1  0  0  0  0
 32 31  2  0  0  0  0
 34 33  1  0  0  0  0
 36 35  1  0  0  0  0
 37 36  1  0  0  0  0
 38 41  1  0  0  0  0
 38 37  1  0  0  0  0
 39 38  1  0  0  0  0
 40 38  1  0  0  0  0
 41 42  1  0  0  0  0
M  END
>  <minimizedAffinity>
-7.89629507

$$$$

 OpenBabel12271914453D

 42 46  0  0  1  0  0  0  0  0999 V2000
  -18.5490  -26.5790  -11.3300 C   0  0  1  0  0  0  0  0  0  0  0  0
  -17.0460  -26.0120  -11.1780 C   0  0  1  0  0  0  0  0  0  0  0  0
  -16.3020  -26.1860   -9.8260 C   0  0  0  0  0  0  0  0  0  0  0  0
  -16.8840  -26.9180   -8.7430 C   0  0  0  0  0  0  0  0  0  0  0  0
  -16.1800  -27.0740   -7.5670 C   0  0  0  0  0  0  0  0  0  0  0  0
  -16.6490  -27.7090   -6.4780 O   0  0  0  0  0  0  0  0  0  0  0  0
  -15.6100  -27.3110   -5.5100 C   0  0  0  0  0  0  0  0  0  0  0  0
  -14.3960  -26.8490   -6.2150 O   0  0  0  0  0  0  0  0  0  0  0  0
  -14.9390  -26.5960   -7.4390 C   0  0  0  0  0  0  0  0  0  0  0  0
  -14.3160  -25.9420   -8.4400 C   0  0  0  0  0  0  0  0  0  0  0  0
  -14.9880  -25.7090   -9.6780 C   0  0  0  0  0  0  0  0  0  0  0  0
  -14.2240  -24.9880  -10.7300 C   0  0  0  0  0  0  0  0  0  0  0  0
  -14.2780  -25.5540  -12.0920 C   0  0  0  0  0  0  0  0  0  0  0  0
  -14.9110  -26.9540  -12.1180 N   0  0  2  0  0  0  0  0  0  0  0  0
  -14.6470  -27.4560  -11.2320 H   0  0  0  0  0  0  0  0  0  0  0  0
  -14.5360  -27.6570  -13.3470 C   0  0  0  0  0  0  0  0  0  0  0  0
  -15.5240  -27.1060  -14.3770 C   0  0  0  0  0  0  0  0  0  0  0  0
  -16.6600  -26.4570  -13.6340 C   0  0  0  0  0  0  0  0  0  0  0  0
  -16.4090  -26.9110  -12.1850 C   0  0  2  0  0  0  0  0  0  0  0  0
  -17.0860  -28.2680  -11.9730 C   0  0  0  0  0  0  0  0  0  0  0  0
  -18.2540  -28.0490  -11.4880 C   0  0  1  0  0  0  0  0  0  0  0  0
  -19.1380  -28.9920  -11.0920 O   0  0  0  0  0  0  0  0  0  0  0  0
  -19.7520  -29.6920  -12.1910 C   0  0  0  0  0  0  0  0  0  0  0  0
  -19.4570  -26.1770  -10.2040 O   0  0  0  0  0  0  0  0  0  0  0  0
  -20.6880  -25.9380  -10.5960 C   0  0  0  0  0  0  0  0  0  0  0  0
  -21.0870  -24.9490  -11.3670 O   0  0  0  0  0  0  0  0  0  0  0  0
  -21.7420  -26.8330   -9.9560 C   0  0  2  0  0  0  0  0  0  0  0  0
  -21.1410  -28.0350   -9.3830 O   0  0  0  0  0  0  0  0  0  0  0  0
  -20.8830  -27.7760   -8.5110 H   0  0  0  0  0  0  0  0  0  0  0  0
  -22.7690  -27.1380  -11.1340 C   0  0  0  0  0  0  0  0  0  0  0  0
  -23.2320  -28.6360  -11.2640 C   0  0  0  0  0  0  0  0  0  0  0  0
  -23.2740  -29.2390  -12.3630 O   0  0  0  0  0  0  0  0  0  0  0  0
  -23.6120  -29.0820  -10.0830 O   0  0  0  0  0  0  0  0  0  0  0  0
  -23.7070  -30.5650   -9.9680 C   0  0  0  0  0  0  0  0  0  0  0  0
  -22.3300  -25.9370   -8.9030 C   0  0  0  0  0  0  0  0  0  0  0  0
  -23.9210  -25.7450   -8.8830 C   0  0  0  0  0  0  0  0  0  0  0  0
  -24.5120  -26.5160   -7.7460 C   0  0  0  0  0  0  0  0  0  0  0  0
  -25.0520  -25.6620   -6.5520 C   0  0  0  0  0  0  0  0  0  0  0  0
  -26.3330  -24.8750   -6.8720 C   0  0  0  0  0  0  0  0  0  0  0  0
  -25.3250  -26.6460   -5.4800 C   0  0  0  0  0  0  0  0  0  0  0  0
  -24.0570  -24.7440   -6.0980 O   0  0  0  0  0  0  0  0  0  0  0  0
  -23.5000  -25.2240   -5.4890 H   0  0  0  0  0  0  0  0  0  0  0  0
  1  2  1  0  0  0  0
  1 24  1  1  0  0  0
  2 19  1  6  0  0  0
  2  3  1  0  0  0  0
  3 11  2  0  0  0  0
  3  4  1  0  0  0  0
  4  5  2  0  0  0  0
  5  9  1  0  0  0  0
  5  6  1  0  0  0  0
  6  7  1  0  0  0  0
  8  7  1  0  0  0  0
  9  8  1  0  0  0  0
 10  9  2  0  0  0  0
 11 10  1  0  0  0  0
 12 11  1  0  0  0  0
 13 12  1  0  0  0  0
 14 19  1  6  0  0  0
 14 13  1  0  0  0  0
 14 15  1  0  0  0  0
 16 14  1  0  0  0  0
 17 18  1  0  0  0  0
 17 16  1  0  0  0  0
 19 18  1  6  0  0  0
 19 20  1  0  0  0  0
 20 21  1  0  0  0  0
 21  1  1  0  0  0  0
 21 22  1  1  0  0  0
 23 22  1  0  0  0  0
 25 24  1  0  0  0  0
 25 27  1  0  0  0  0
 26 25  2  0  0  0  0
 27 30  1  6  0  0  0
 27 28  1  0  0  0  0
 27 35  1  0  0  0  0
 28 29  1  0  0  0  0
 31 30  1  0  0  0  0
 31 33  1  0  0  0  0
 32 31  2  0  0  0  0
 33 34  1  0  0  0  0
 35 36  1  0  0  0  0
 36 37  1  0  0  0  0
 37 38  1  0  0  0  0
 38 41  1  0  0  0  0
 38 40  1  0  0  0  0
 39 38  1  0  0  0  0
 41 42  1  0  0  0  0
M  END
>  <minimizedAffinity>
-7.57835531

$$$$

 OpenBabel12271914453D

 42 46  0  0  1  0  0  0  0  0999 V2000
  -26.3180  -24.8160   -4.4240 C   0  0  1  0  0  0  0  0  0  0  0  0
  -27.2080  -24.2770   -3.1910 C   0  0  1  0  0  0  0  0  0  0  0  0
  -28.2650  -25.2170   -2.5490 C   0  0  0  0  0  0  0  0  0  0  0  0
  -28.4020  -26.5790   -2.9650 C   0  0  0  0  0  0  0  0  0  0  0  0
  -29.3350  -27.3910   -2.3520 C   0  0  0  0  0  0  0  0  0  0  0  0
  -29.5700  -28.6700   -2.6930 O   0  0  0  0  0  0  0  0  0  0  0  0
  -30.8050  -28.8940   -1.9160 C   0  0  0  0  0  0  0  0  0  0  0  0
  -30.9370  -27.8790   -0.8500 O   0  0  0  0  0  0  0  0  0  0  0  0
  -30.0780  -26.9400   -1.3370 C   0  0  0  0  0  0  0  0  0  0  0  0
  -29.9600  -25.6830   -0.8650 C   0  0  0  0  0  0  0  0  0  0  0  0
  -29.0420  -24.7690   -1.4670 C   0  0  0  0  0  0  0  0  0  0  0  0
  -28.9700  -23.4070   -0.8770 C   0  0  0  0  0  0  0  0  0  0  0  0
  -27.6200  -22.8610   -0.6350 C   0  0  0  0  0  0  0  0  0  0  0  0
  -26.5230  -23.9250   -0.7960 N   0  0  2  0  0  0  0  0  0  0  0  0
  -26.9030  -24.8480   -0.4670 H   0  0  0  0  0  0  0  0  0  0  0  0
  -25.2980  -23.4970   -0.1160 C   0  0  0  0  0  0  0  0  0  0  0  0
  -24.6470  -22.5590   -1.1340 C   0  0  0  0  0  0  0  0  0  0  0  0
  -25.2800  -22.8120   -2.4750 C   0  0  0  0  0  0  0  0  0  0  0  0
  -26.0880  -24.0970   -2.2210 C   0  0  2  0  0  0  0  0  0  0  0  0
  -25.1760  -25.3040   -2.4580 C   0  0  0  0  0  0  0  0  0  0  0  0
  -25.3390  -25.6830   -3.6730 C   0  0  1  0  0  0  0  0  0  0  0  0
  -24.7680  -26.7640   -4.2510 O   0  0  0  0  0  0  0  0  0  0  0  0
  -25.5310  -27.9730   -4.0730 C   0  0  0  0  0  0  0  0  0  0  0  0
  -27.1280  -25.4710   -5.5050 O   0  0  0  0  0  0  0  0  0  0  0  0
  -26.6690  -25.2260   -6.7120 C   0  0  0  0  0  0  0  0  0  0  0  0
  -26.0580  -24.1310   -7.1100 O   0  0  0  0  0  0  0  0  0  0  0  0
  -27.0260  -26.2800   -7.7520 C   0  0  2  0  0  0  0  0  0  0  0  0
  -28.1410  -25.8430   -8.5900 O   0  0  0  0  0  0  0  0  0  0  0  0
  -27.7330  -25.3470   -9.2840 H   0  0  0  0  0  0  0  0  0  0  0  0
  -27.3500  -27.5850   -6.8990 C   0  0  0  0  0  0  0  0  0  0  0  0
  -28.6470  -28.3700   -7.3180 C   0  0  0  0  0  0  0  0  0  0  0  0
  -29.7430  -27.8010   -7.5350 O   0  0  0  0  0  0  0  0  0  0  0  0
  -28.3920  -29.6640   -7.3240 O   0  0  0  0  0  0  0  0  0  0  0  0
  -26.9680  -30.0270   -7.5750 C   0  0  0  0  0  0  0  0  0  0  0  0
  -25.7490  -26.4100   -8.5330 C   0  0  0  0  0  0  0  0  0  0  0  0
  -24.4950  -27.1020   -7.8120 C   0  0  0  0  0  0  0  0  0  0  0  0
  -23.2220  -26.5980   -8.4140 C   0  0  0  0  0  0  0  0  0  0  0  0
  -22.5120  -25.4420   -7.6340 C   0  0  0  0  0  0  0  0  0  0  0  0
  -21.0990  -25.7940   -7.1410 C   0  0  0  0  0  0  0  0  0  0  0  0
  -22.4400  -24.3260   -8.6030 C   0  0  0  0  0  0  0  0  0  0  0  0
  -23.2960  -25.0360   -6.5120 O   0  0  0  0  0  0  0  0  0  0  0  0
  -23.9350  -24.4080   -6.8390 H   0  0  0  0  0  0  0  0  0  0  0  0
  1 24  1  6  0  0  0
  1 21  1  0  0  0  0
  1  2  1  0  0  0  0
  2  3  1  0  0  0  0
  2 19  1  1  0  0  0
  3 11  1  0  0  0  0
  4  3  2  0  0  0  0
  4  5  1  0  0  0  0
  5  9  2  0  0  0  0
  6  5  1  0  0  0  0
  6  7  1  0  0  0  0
  7  8  1  0  0  0  0
  9 10  1  0  0  0  0
  9  8  1  0  0  0  0
 11 12  1  0  0  0  0
 11 10  2  0  0  0  0
 12 13  1  0  0  0  0
 14 19  1  6  0  0  0
 14 13  1  0  0  0  0
 14 15  1  0  0  0  0
 14 16  1  0  0  0  0
 17 16  1  0  0  0  0
 18 17  1  0  0  0  0
 19 18  1  6  0  0  0
 20 19  1  0  0  0  0
 21 22  1  1  0  0  0
 21 20  1  0  0  0  0
 22 23  1  0  0  0  0
 25 24  1  0  0  0  0
 26 25  2  0  0  0  0
 27 35  1  6  0  0  0
 27 30  1  0  0  0  0
 27 25  1  0  0  0  0
 28 27  1  0  0  0  0
 29 28  1  0  0  0  0
 31 30  1  0  0  0  0
 32 31  2  0  0  0  0
 33 31  1  0  0  0  0
 34 33  1  0  0  0  0
 35 36  1  0  0  0  0
 37 36  1  0  0  0  0
 37 38  1  0  0  0  0
 38 39  1  0  0  0  0
 38 41  1  0  0  0  0
 40 38  1  0  0  0  0
 42 41  1  0  0  0  0
M  END
>  <minimizedAffinity>
-7.32363605

$$$$

 OpenBabel12271914453D

 42 46  0  0  1  0  0  0  0  0999 V2000
  -17.6280  -27.9390  -10.2710 C   0  0  1  0  0  0  0  0  0  0  0  0
  -16.2010  -27.4480   -9.7000 C   0  0  1  0  0  0  0  0  0  0  0  0
  -15.1600  -26.8390  -10.6790 C   0  0  0  0  0  0  0  0  0  0  0  0
  -15.4730  -26.6180  -12.0580 C   0  0  0  0  0  0  0  0  0  0  0  0
  -14.5300  -26.0500  -12.8890 C   0  0  0  0  0  0  0  0  0  0  0  0
  -14.7070  -25.8350  -14.2050 O   0  0  0  0  0  0  0  0  0  0  0  0
  -13.3200  -25.4940  -14.5750 C   0  0  0  0  0  0  0  0  0  0  0  0
  -12.5460  -25.1070  -13.3770 O   0  0  0  0  0  0  0  0  0  0  0  0
  -13.3450  -25.6520  -12.4170 C   0  0  0  0  0  0  0  0  0  0  0  0
  -13.0100  -25.7850  -11.1180 C   0  0  0  0  0  0  0  0  0  0  0  0
  -13.9160  -26.3950  -10.1970 C   0  0  0  0  0  0  0  0  0  0  0  0
  -13.4690  -26.4930   -8.7840 C   0  0  0  0  0  0  0  0  0  0  0  0
  -14.4460  -26.0940   -7.7520 C   0  0  0  0  0  0  0  0  0  0  0  0
  -15.6740  -25.3910   -8.3510 N   0  0  2  0  0  0  0  0  0  0  0  0
  -15.3620  -24.8270   -9.1820 H   0  0  0  0  0  0  0  0  0  0  0  0
  -16.3680  -24.6160   -7.3200 C   0  0  0  0  0  0  0  0  0  0  0  0
  -17.2210  -25.6700   -6.6110 C   0  0  0  0  0  0  0  0  0  0  0  0
  -17.3080  -26.8790   -7.5030 C   0  0  0  0  0  0  0  0  0  0  0  0
  -16.7200  -26.3550   -8.8260 C   0  0  2  0  0  0  0  0  0  0  0  0
  -17.8450  -25.7110   -9.6410 C   0  0  0  0  0  0  0  0  0  0  0  0
  -18.3110  -26.6050  -10.4350 C   0  0  1  0  0  0  0  0  0  0  0  0
  -19.2660  -26.4130  -11.3730 O   0  0  0  0  0  0  0  0  0  0  0  0
  -20.5850  -26.2510  -10.8170 C   0  0  0  0  0  0  0  0  0  0  0  0
  -17.5170  -28.8090  -11.4900 O   0  0  0  0  0  0  0  0  0  0  0  0
  -18.6480  -29.4010  -11.8040 C   0  0  0  0  0  0  0  0  0  0  0  0
  -19.4230  -30.0880  -10.9940 O   0  0  0  0  0  0  0  0  0  0  0  0
  -18.9810  -29.3820  -13.2910 C   0  0  2  0  0  0  0  0  0  0  0  0
  -19.4020  -28.0520  -13.7250 O   0  0  0  0  0  0  0  0  0  0  0  0
  -18.5940  -27.6080  -13.9360 H   0  0  0  0  0  0  0  0  0  0  0  0
  -20.1130  -30.4900  -13.4560 C   0  0  0  0  0  0  0  0  0  0  0  0
  -21.1780  -30.2140  -14.5800 C   0  0  0  0  0  0  0  0  0  0  0  0
  -20.8640  -29.8270  -15.7310 O   0  0  0  0  0  0  0  0  0  0  0  0
  -22.3890  -30.3850  -14.0870 O   0  0  0  0  0  0  0  0  0  0  0  0
  -22.4480  -30.5930  -12.6120 C   0  0  0  0  0  0  0  0  0  0  0  0
  -17.6800  -29.7970  -13.9180 C   0  0  0  0  0  0  0  0  0  0  0  0
  -17.6680  -31.1250  -14.8160 C   0  0  0  0  0  0  0  0  0  0  0  0
  -16.9100  -30.8760  -16.0810 C   0  0  0  0  0  0  0  0  0  0  0  0
  -17.7590  -30.8820  -17.3950 C   0  0  0  0  0  0  0  0  0  0  0  0
  -18.1110  -29.4820  -17.9220 C   0  0  0  0  0  0  0  0  0  0  0  0
  -16.9140  -31.5900  -18.3830 C   0  0  0  0  0  0  0  0  0  0  0  0
  -18.9700  -31.6150  -17.2090 O   0  0  0  0  0  0  0  0  0  0  0  0
  -18.7580  -32.5340  -17.3540 H   0  0  0  0  0  0  0  0  0  0  0  0
  1 24  1  6  0  0  0
  1  2  1  0  0  0  0
  2 19  1  1  0  0  0
  3 11  1  0  0  0  0
  3  2  1  0  0  0  0
  4  3  2  0  0  0  0
  5  9  2  0  0  0  0
  5  4  1  0  0  0  0
  6  5  1  0  0  0  0
  7  6  1  0  0  0  0
  7  8  1  0  0  0  0
  8  9  1  0  0  0  0
  9 10  1  0  0  0  0
 10 11  2  0  0  0  0
 11 12  1  0  0  0  0
 12 13  1  0  0  0  0
 14 19  1  6  0  0  0
 14 13  1  0  0  0  0
 14 16  1  0  0  0  0
 15 14  1  0  0  0  0
 16 17  1  0  0  0  0
 18 17  1  0  0  0  0
 19 20  1  6  0  0  0
 19 18  1  0  0  0  0
 21 22  1  6  0  0  0
 21  1  1  0  0  0  0
 21 20  1  0  0  0  0
 22 23  1  0  0  0  0
 25 24  1  0  0  0  0
 25 26  2  0  0  0  0
 27 35  1  6  0  0  0
 27 25  1  0  0  0  0
 28 27  1  0  0  0  0
 29 28  1  0  0  0  0
 30 27  1  0  0  0  0
 31 33  1  0  0  0  0
 31 30  1  0  0  0  0
 32 31  2  0  0  0  0
 33 34  1  0  0  0  0
 36 35  1  0  0  0  0
 37 36  1  0  0  0  0
 38 41  1  0  0  0  0
 38 37  1  0  0  0  0
 39 38  1  0  0  0  0
 40 38  1  0  0  0  0
 42 41  1  0  0  0  0
M  END
>  <minimizedAffinity>
-7.22080421

$$$$
