
 OpenBabel12271914493D

 24 27  0  0  0  0  0  0  0  0999 V2000
  -16.1230  -25.7820   -9.7770 N   0  0  0  0  0  0  0  0  0  0  0  0
  -17.1460  -26.3880  -10.4750 C   0  0  0  0  0  0  0  0  0  0  0  0
  -18.4830  -26.3250  -10.1160 N   0  0  0  0  0  0  0  0  0  0  0  0
  -19.3850  -25.8380  -11.1710 C   0  0  0  0  0  0  0  0  0  0  0  0
  -20.0640  -27.0160  -11.9060 C   0  0  0  0  0  0  0  0  0  0  0  0
  -20.7300  -27.9720  -10.9600 N   0  0  0  0  0  0  0  0  0  0  0  0
  -20.3390  -28.9170  -11.1150 H   0  0  0  0  0  0  0  0  0  0  0  0
  -21.7300  -28.0040  -11.1880 H   0  0  0  0  0  0  0  0  0  0  0  0
  -20.5780  -27.5940   -9.5240 C   0  0  0  0  0  0  0  0  0  0  0  0
  -19.0970  -27.2720   -9.1640 C   0  0  0  0  0  0  0  0  0  0  0  0
  -16.6860  -26.8270  -11.6200 N   0  0  0  0  0  0  0  0  0  0  0  0
  -15.3810  -26.4090  -11.7370 C   0  0  0  0  0  0  0  0  0  0  0  0
  -14.4650  -26.5140  -12.7930 C   0  0  0  0  0  0  0  0  0  0  0  0
  -13.1960  -25.9470  -12.6550 C   0  0  0  0  0  0  0  0  0  0  0  0
  -12.8440  -25.2680  -11.5050 C   0  0  0  0  0  0  0  0  0  0  0  0
  -13.7580  -25.1520  -10.4660 C   0  0  0  0  0  0  0  0  0  0  0  0
  -15.0120  -25.7420  -10.5990 C   0  0  0  0  0  0  0  0  0  0  0  0
  -16.2360  -25.0440   -8.5400 C   0  0  0  0  0  0  0  0  0  0  0  0
  -16.0020  -25.8660   -7.3020 C   0  0  0  0  0  0  0  0  0  0  0  0
  -17.0320  -26.0400   -6.3660 C   0  0  0  0  0  0  0  0  0  0  0  0
  -16.8470  -26.8310   -5.2440 C   0  0  0  0  0  0  0  0  0  0  0  0
  -15.6340  -27.4740   -5.0290 C   0  0  0  0  0  0  0  0  0  0  0  0
  -14.6040  -27.3000   -5.9450 C   0  0  0  0  0  0  0  0  0  0  0  0
  -14.7860  -26.5030   -7.0600 C   0  0  0  0  0  0  0  0  0  0  0  0
  1 18  1  0  0  0  0
  2  3  1  0  0  0  0
  2  1  1  0  0  0  0
  3 10  1  0  0  0  0
  4  3  1  0  0  0  0
  5  4  1  0  0  0  0
  5  6  1  0  0  0  0
  6  9  1  0  0  0  0
  7  6  1  0  0  0  0
  8  6  1  0  0  0  0
  9 10  1  0  0  0  0
 11  2  2  0  0  0  0
 12 11  2  0  0  0  0
 12 17  1  0  0  0  0
 13 14  1  0  0  0  0
 13 12  1  0  0  0  0
 14 15  2  0  0  0  0
 15 16  1  0  0  0  0
 17 16  2  0  0  0  0
 17  1  1  0  0  0  0
 18 19  1  0  0  0  0
 19 24  2  0  0  0  0
 19 20  1  0  0  0  0
 20 21  2  0  0  0  0
 21 22  1  0  0  0  0
 23 22  2  0  0  0  0
 24 23  1  0  0  0  0
M  END
>  <minimizedAffinity>
-8.44631672

$$$$

 OpenBabel12271914493D

 24 27  0  0  0  0  0  0  0  0999 V2000
  -16.3040  -26.4940  -10.1280 N   0  0  0  0  0  0  0  0  0  0  0  0
  -17.0120  -27.4380  -10.8420 C   0  0  0  0  0  0  0  0  0  0  0  0
  -18.3340  -27.7730  -10.5980 N   0  0  0  0  0  0  0  0  0  0  0  0
  -19.2240  -27.6690  -11.7650 C   0  0  0  0  0  0  0  0  0  0  0  0
  -19.4290  -29.0490  -12.4300 C   0  0  0  0  0  0  0  0  0  0  0  0
  -19.8670  -30.0970  -11.4490 N   0  0  0  0  0  0  0  0  0  0  0  0
  -19.1920  -30.8800  -11.4770 H   0  0  0  0  0  0  0  0  0  0  0  0
  -20.7780  -30.4570  -11.7520 H   0  0  0  0  0  0  0  0  0  0  0  0
  -19.9910  -29.5910  -10.0500 C   0  0  0  0  0  0  0  0  0  0  0  0
  -18.7270  -28.7950   -9.6080 C   0  0  0  0  0  0  0  0  0  0  0  0
  -16.3210  -27.7890  -11.8970 N   0  0  0  0  0  0  0  0  0  0  0  0
  -15.2010  -26.9920  -11.9510 C   0  0  0  0  0  0  0  0  0  0  0  0
  -14.1900  -26.8780  -12.9150 C   0  0  0  0  0  0  0  0  0  0  0  0
  -13.1780  -25.9330  -12.7350 C   0  0  0  0  0  0  0  0  0  0  0  0
  -13.1740  -25.0990  -11.6340 C   0  0  0  0  0  0  0  0  0  0  0  0
  -14.1850  -25.2030  -10.6870 C   0  0  0  0  0  0  0  0  0  0  0  0
  -15.1770  -26.1640  -10.8600 C   0  0  0  0  0  0  0  0  0  0  0  0
  -16.7680  -25.7440   -8.9840 C   0  0  0  0  0  0  0  0  0  0  0  0
  -16.3700  -26.3260   -7.6560 C   0  0  0  0  0  0  0  0  0  0  0  0
  -15.0800  -26.8440   -7.4710 C   0  0  0  0  0  0  0  0  0  0  0  0
  -14.6830  -27.3420   -6.2400 C   0  0  0  0  0  0  0  0  0  0  0  0
  -15.5590  -27.3300   -5.1610 C   0  0  0  0  0  0  0  0  0  0  0  0
  -16.8420  -26.8270   -5.3360 C   0  0  0  0  0  0  0  0  0  0  0  0
  -17.2410  -26.3400   -6.5670 C   0  0  0  0  0  0  0  0  0  0  0  0
  1 18  1  0  0  0  0
  2  3  1  0  0  0  0
  2  1  1  0  0  0  0
  3 10  1  0  0  0  0
  4  3  1  0  0  0  0
  5  4  1  0  0  0  0
  5  6  1  0  0  0  0
  6  9  1  0  0  0  0
  7  6  1  0  0  0  0
  8  6  1  0  0  0  0
  9 10  1  0  0  0  0
 11  2  2  0  0  0  0
 12 11  2  0  0  0  0
 12 17  1  0  0  0  0
 13 14  1  0  0  0  0
 13 12  1  0  0  0  0
 14 15  2  0  0  0  0
 15 16  1  0  0  0  0
 17 16  2  0  0  0  0
 17  1  1  0  0  0  0
 18 19  1  0  0  0  0
 19 20  2  0  0  0  0
 19 24  1  0  0  0  0
 20 21  1  0  0  0  0
 21 22  2  0  0  0  0
 23 22  1  0  0  0  0
 24 23  2  0  0  0  0
M  END
>  <minimizedAffinity>
-7.99865723

$$$$

 OpenBabel12271914493D

 24 27  0  0  0  0  0  0  0  0999 V2000
  -16.7120  -26.1530   -6.4930 N   0  0  0  0  0  0  0  0  0  0  0  0
  -15.6000  -26.3230   -7.2900 C   0  0  0  0  0  0  0  0  0  0  0  0
  -15.2830  -25.5150   -8.3710 N   0  0  0  0  0  0  0  0  0  0  0  0
  -13.9350  -24.9260   -8.3280 C   0  0  0  0  0  0  0  0  0  0  0  0
  -12.9420  -25.7500   -9.1790 C   0  0  0  0  0  0  0  0  0  0  0  0
  -13.4400  -25.9760  -10.5770 N   0  0  0  0  0  0  0  0  0  0  0  0
  -13.4710  -26.9940  -10.7570 H   0  0  0  0  0  0  0  0  0  0  0  0
  -12.7640  -25.5630  -11.2280 H   0  0  0  0  0  0  0  0  0  0  0  0
  -14.7830  -25.3790  -10.8370 C   0  0  0  0  0  0  0  0  0  0  0  0
  -15.8100  -25.7580   -9.7280 C   0  0  0  0  0  0  0  0  0  0  0  0
  -14.8020  -27.2020   -6.7370 N   0  0  0  0  0  0  0  0  0  0  0  0
  -15.3280  -27.5340   -5.5100 C   0  0  0  0  0  0  0  0  0  0  0  0
  -14.8320  -28.3410   -4.4770 C   0  0  0  0  0  0  0  0  0  0  0  0
  -15.5660  -28.4670   -3.2960 C   0  0  0  0  0  0  0  0  0  0  0  0
  -16.7590  -27.7910   -3.1280 C   0  0  0  0  0  0  0  0  0  0  0  0
  -17.2420  -26.9800   -4.1460 C   0  0  0  0  0  0  0  0  0  0  0  0
  -16.5180  -26.8790   -5.3310 C   0  0  0  0  0  0  0  0  0  0  0  0
  -17.7610  -25.1750   -6.6640 C   0  0  0  0  0  0  0  0  0  0  0  0
  -19.0100  -25.7090   -7.3100 C   0  0  0  0  0  0  0  0  0  0  0  0
  -20.2690  -25.3910   -6.7820 C   0  0  0  0  0  0  0  0  0  0  0  0
  -21.4300  -25.8380   -7.3920 C   0  0  0  0  0  0  0  0  0  0  0  0
  -21.3670  -26.6060   -8.5480 C   0  0  0  0  0  0  0  0  0  0  0  0
  -20.1230  -26.9340   -9.0750 C   0  0  0  0  0  0  0  0  0  0  0  0
  -18.9650  -26.4960   -8.4600 C   0  0  0  0  0  0  0  0  0  0  0  0
  1 17  1  0  0  0  0
  2 11  2  0  0  0  0
  2  1  1  0  0  0  0
  3  4  1  0  0  0  0
  3  2  1  0  0  0  0
  5  4  1  0  0  0  0
  6  5  1  0  0  0  0
  7  6  1  0  0  0  0
  8  6  1  0  0  0  0
  9  6  1  0  0  0  0
  9 10  1  0  0  0  0
 10  3  1  0  0  0  0
 11 12  2  0  0  0  0
 12 17  1  0  0  0  0
 12 13  1  0  0  0  0
 13 14  1  0  0  0  0
 14 15  2  0  0  0  0
 16 15  1  0  0  0  0
 17 16  2  0  0  0  0
 18  1  1  0  0  0  0
 19 20  1  0  0  0  0
 19 18  1  0  0  0  0
 21 20  2  0  0  0  0
 22 21  1  0  0  0  0
 23 22  2  0  0  0  0
 23 24  1  0  0  0  0
 24 19  2  0  0  0  0
M  END
>  <minimizedAffinity>
-7.93322134

$$$$

 OpenBabel12271914493D

 24 27  0  0  0  0  0  0  0  0999 V2000
  -16.3410  -27.1130   -8.7450 N   0  0  0  0  0  0  0  0  0  0  0  0
  -17.6010  -26.6310   -9.0310 C   0  0  0  0  0  0  0  0  0  0  0  0
  -18.2200  -26.7480  -10.2660 N   0  0  0  0  0  0  0  0  0  0  0  0
  -19.5500  -27.3760  -10.2340 C   0  0  0  0  0  0  0  0  0  0  0  0
  -20.6680  -26.3080  -10.2350 C   0  0  0  0  0  0  0  0  0  0  0  0
  -20.5120  -25.3200  -11.3540 N   0  0  0  0  0  0  0  0  0  0  0  0
  -20.4630  -24.3680  -10.9510 H   0  0  0  0  0  0  0  0  0  0  0  0
  -21.3500  -25.3690  -11.9440 H   0  0  0  0  0  0  0  0  0  0  0  0
  -19.3110  -25.5670  -12.2060 C   0  0  0  0  0  0  0  0  0  0  0  0
  -18.0250  -25.7650  -11.3500 C   0  0  0  0  0  0  0  0  0  0  0  0
  -18.1850  -26.2620   -7.9190 N   0  0  0  0  0  0  0  0  0  0  0  0
  -17.3580  -26.6060   -6.8760 C   0  0  0  0  0  0  0  0  0  0  0  0
  -17.5370  -26.5320   -5.4870 C   0  0  0  0  0  0  0  0  0  0  0  0
  -16.5320  -27.0060   -4.6420 C   0  0  0  0  0  0  0  0  0  0  0  0
  -15.3770  -27.5630   -5.1570 C   0  0  0  0  0  0  0  0  0  0  0  0
  -15.2070  -27.6490   -6.5320 C   0  0  0  0  0  0  0  0  0  0  0  0
  -16.2020  -27.1520   -7.3690 C   0  0  0  0  0  0  0  0  0  0  0  0
  -15.4270  -27.7510   -9.6640 C   0  0  0  0  0  0  0  0  0  0  0  0
  -14.4610  -26.8110  -10.3340 C   0  0  0  0  0  0  0  0  0  0  0  0
  -13.4760  -26.1570   -9.5810 C   0  0  0  0  0  0  0  0  0  0  0  0
  -12.5520  -25.3240  -10.1900 C   0  0  0  0  0  0  0  0  0  0  0  0
  -12.5800  -25.1280  -11.5650 C   0  0  0  0  0  0  0  0  0  0  0  0
  -13.5580  -25.7650  -12.3200 C   0  0  0  0  0  0  0  0  0  0  0  0
  -14.4870  -26.5880  -11.7100 C   0  0  0  0  0  0  0  0  0  0  0  0
  1 17  1  0  0  0  0
  2  1  1  0  0  0  0
  2 11  2  0  0  0  0
  3  4  1  0  0  0  0
  3  2  1  0  0  0  0
  5  4  1  0  0  0  0
  6  7  1  0  0  0  0
  6  5  1  0  0  0  0
  8  6  1  0  0  0  0
  9  6  1  0  0  0  0
  9 10  1  0  0  0  0
 10  3  1  0  0  0  0
 11 12  2  0  0  0  0
 12 13  1  0  0  0  0
 13 14  1  0  0  0  0
 15 14  2  0  0  0  0
 16 15  1  0  0  0  0
 17 12  1  0  0  0  0
 17 16  2  0  0  0  0
 18  1  1  0  0  0  0
 19 18  1  0  0  0  0
 19 20  2  0  0  0  0
 21 20  1  0  0  0  0
 22 21  2  0  0  0  0
 23 24  2  0  0  0  0
 23 22  1  0  0  0  0
 24 19  1  0  0  0  0
M  END
>  <minimizedAffinity>
-7.84713888

$$$$

 OpenBabel12271914493D

 24 27  0  0  0  0  0  0  0  0999 V2000
  -27.1240  -24.8130   -2.2970 N   0  0  0  0  0  0  0  0  0  0  0  0
  -26.0840  -25.2270   -3.1020 C   0  0  0  0  0  0  0  0  0  0  0  0
  -26.2060  -26.1600   -4.1190 N   0  0  0  0  0  0  0  0  0  0  0  0
  -25.7320  -25.7050   -5.4360 C   0  0  0  0  0  0  0  0  0  0  0  0
  -24.2960  -26.2040   -5.7110 C   0  0  0  0  0  0  0  0  0  0  0  0
  -24.1590  -27.6860   -5.5180 N   0  0  0  0  0  0  0  0  0  0  0  0
  -23.4170  -27.8620   -4.8190 H   0  0  0  0  0  0  0  0  0  0  0  0
  -23.8560  -28.0980   -6.4070 H   0  0  0  0  0  0  0  0  0  0  0  0
  -25.4240  -28.3510   -5.0870 C   0  0  0  0  0  0  0  0  0  0  0  0
  -26.0860  -27.6120   -3.8850 C   0  0  0  0  0  0  0  0  0  0  0  0
  -25.0480  -24.4500   -2.9020 N   0  0  0  0  0  0  0  0  0  0  0  0
  -25.4350  -23.4450   -2.0480 C   0  0  0  0  0  0  0  0  0  0  0  0
  -24.7590  -22.3050   -1.5910 C   0  0  0  0  0  0  0  0  0  0  0  0
  -25.4220  -21.4080   -0.7500 C   0  0  0  0  0  0  0  0  0  0  0  0
  -26.7370  -21.6200   -0.3830 C   0  0  0  0  0  0  0  0  0  0  0  0
  -27.4100  -22.7420   -0.8490 C   0  0  0  0  0  0  0  0  0  0  0  0
  -26.7360  -23.6450   -1.6660 C   0  0  0  0  0  0  0  0  0  0  0  0
  -28.4820  -25.3050   -2.3140 C   0  0  0  0  0  0  0  0  0  0  0  0
  -28.7280  -26.4850   -1.4140 C   0  0  0  0  0  0  0  0  0  0  0  0
  -29.8640  -27.2860   -1.5950 C   0  0  0  0  0  0  0  0  0  0  0  0
  -30.0810  -28.4030   -0.8040 C   0  0  0  0  0  0  0  0  0  0  0  0
  -29.1680  -28.7530    0.1830 C   0  0  0  0  0  0  0  0  0  0  0  0
  -28.0430  -27.9600    0.3770 C   0  0  0  0  0  0  0  0  0  0  0  0
  -27.8330  -26.8400   -0.4060 C   0  0  0  0  0  0  0  0  0  0  0  0
  1 17  1  0  0  0  0
  2 11  2  0  0  0  0
  2  1  1  0  0  0  0
  3 10  1  0  0  0  0
  3  2  1  0  0  0  0
  4  3  1  0  0  0  0
  5  6  1  0  0  0  0
  5  4  1  0  0  0  0
  6  9  1  0  0  0  0
  6  7  1  0  0  0  0
  8  6  1  0  0  0  0
  9 10  1  0  0  0  0
 11 12  2  0  0  0  0
 12 17  1  0  0  0  0
 12 13  1  0  0  0  0
 13 14  1  0  0  0  0
 14 15  2  0  0  0  0
 16 15  1  0  0  0  0
 17 16  2  0  0  0  0
 18  1  1  0  0  0  0
 18 19  1  0  0  0  0
 19 24  1  0  0  0  0
 20 19  2  0  0  0  0
 20 21  1  0  0  0  0
 21 22  2  0  0  0  0
 22 23  1  0  0  0  0
 24 23  2  0  0  0  0
M  END
>  <minimizedAffinity>
-7.71132803

$$$$

 OpenBabel12271914493D

 24 27  0  0  0  0  0  0  0  0999 V2000
  -16.6450  -26.8600  -11.4470 N   0  0  0  0  0  0  0  0  0  0  0  0
  -17.9620  -27.2220  -11.2560 C   0  0  0  0  0  0  0  0  0  0  0  0
  -18.8600  -26.5190  -10.4680 N   0  0  0  0  0  0  0  0  0  0  0  0
  -20.1030  -26.1240  -11.1490 C   0  0  0  0  0  0  0  0  0  0  0  0
  -21.2450  -27.1180  -10.8390 C   0  0  0  0  0  0  0  0  0  0  0  0
  -21.4270  -27.3380   -9.3660 N   0  0  0  0  0  0  0  0  0  0  0  0
  -21.3340  -28.3490   -9.1680 H   0  0  0  0  0  0  0  0  0  0  0  0
  -22.3800  -27.0550   -9.1150 H   0  0  0  0  0  0  0  0  0  0  0  0
  -20.4620  -26.5710   -8.5240 C   0  0  0  0  0  0  0  0  0  0  0  0
  -18.9940  -26.7490   -9.0170 C   0  0  0  0  0  0  0  0  0  0  0  0
  -18.2730  -28.1770  -12.0960 N   0  0  0  0  0  0  0  0  0  0  0  0
  -17.1960  -28.3730  -12.9280 C   0  0  0  0  0  0  0  0  0  0  0  0
  -17.0310  -29.1930  -14.0530 C   0  0  0  0  0  0  0  0  0  0  0  0
  -15.8220  -29.1580  -14.7520 C   0  0  0  0  0  0  0  0  0  0  0  0
  -14.8010  -28.3140  -14.3610 C   0  0  0  0  0  0  0  0  0  0  0  0
  -14.9720  -27.4920  -13.2550 C   0  0  0  0  0  0  0  0  0  0  0  0
  -16.1690  -27.5500  -12.5470 C   0  0  0  0  0  0  0  0  0  0  0  0
  -15.9520  -25.7530  -10.8300 C   0  0  0  0  0  0  0  0  0  0  0  0
  -15.3670  -26.0610   -9.4790 C   0  0  0  0  0  0  0  0  0  0  0  0
  -15.7220  -25.2900   -8.3630 C   0  0  0  0  0  0  0  0  0  0  0  0
  -15.2270  -25.5890   -7.1040 C   0  0  0  0  0  0  0  0  0  0  0  0
  -14.3720  -26.6690   -6.9240 C   0  0  0  0  0  0  0  0  0  0  0  0
  -14.0060  -27.4340   -8.0240 C   0  0  0  0  0  0  0  0  0  0  0  0
  -14.4920  -27.1280   -9.2820 C   0  0  0  0  0  0  0  0  0  0  0  0
  1  2  1  0  0  0  0
  1 18  1  0  0  0  0
  2  3  1  0  0  0  0
  3 10  1  0  0  0  0
  4  5  1  0  0  0  0
  4  3  1  0  0  0  0
  5  6  1  0  0  0  0
  6  7  1  0  0  0  0
  6  8  1  0  0  0  0
  6  9  1  0  0  0  0
 10  9  1  0  0  0  0
 11  2  2  0  0  0  0
 12 17  1  0  0  0  0
 12 11  2  0  0  0  0
 13 12  1  0  0  0  0
 14 15  2  0  0  0  0
 14 13  1  0  0  0  0
 15 16  1  0  0  0  0
 16 17  2  0  0  0  0
 17  1  1  0  0  0  0
 18 19  1  0  0  0  0
 19 24  2  0  0  0  0
 19 20  1  0  0  0  0
 20 21  2  0  0  0  0
 21 22  1  0  0  0  0
 23 22  2  0  0  0  0
 24 23  1  0  0  0  0
M  END
>  <minimizedAffinity>
-7.61284828

$$$$

 OpenBabel12271914493D

 24 27  0  0  0  0  0  0  0  0999 V2000
  -18.2200  -26.7830   -9.7770 N   0  0  0  0  0  0  0  0  0  0  0  0
  -19.5710  -26.9640   -9.5640 C   0  0  0  0  0  0  0  0  0  0  0  0
  -20.3710  -26.0950   -8.8380 N   0  0  0  0  0  0  0  0  0  0  0  0
  -21.5590  -25.6050   -9.5540 C   0  0  0  0  0  0  0  0  0  0  0  0
  -22.8130  -26.4230   -9.1710 C   0  0  0  0  0  0  0  0  0  0  0  0
  -23.0130  -26.5020   -7.6860 N   0  0  0  0  0  0  0  0  0  0  0  0
  -23.0440  -27.4970   -7.4070 H   0  0  0  0  0  0  0  0  0  0  0  0
  -23.9230  -26.0840   -7.4620 H   0  0  0  0  0  0  0  0  0  0  0  0
  -21.9560  -25.7950   -6.9030 C   0  0  0  0  0  0  0  0  0  0  0  0
  -20.5250  -26.1910   -7.3730 C   0  0  0  0  0  0  0  0  0  0  0  0
  -20.0020  -27.9370  -10.3260 N   0  0  0  0  0  0  0  0  0  0  0  0
  -18.9610  -28.3300  -11.1350 C   0  0  0  0  0  0  0  0  0  0  0  0
  -18.9040  -29.2510  -12.1910 C   0  0  0  0  0  0  0  0  0  0  0  0
  -17.7050  -29.4210  -12.8850 C   0  0  0  0  0  0  0  0  0  0  0  0
  -16.5850  -28.6810  -12.5580 C   0  0  0  0  0  0  0  0  0  0  0  0
  -16.6470  -27.7590  -11.5210 C   0  0  0  0  0  0  0  0  0  0  0  0
  -17.8390  -27.6120  -10.8170 C   0  0  0  0  0  0  0  0  0  0  0  0
  -17.3930  -25.7250   -9.2470 C   0  0  0  0  0  0  0  0  0  0  0  0
  -16.4610  -26.1560   -8.1460 C   0  0  0  0  0  0  0  0  0  0  0  0
  -16.9580  -26.4120   -6.8610 C   0  0  0  0  0  0  0  0  0  0  0  0
  -16.1210  -26.8530   -5.8490 C   0  0  0  0  0  0  0  0  0  0  0  0
  -14.7690  -27.0570   -6.0940 C   0  0  0  0  0  0  0  0  0  0  0  0
  -14.2640  -26.7970   -7.3620 C   0  0  0  0  0  0  0  0  0  0  0  0
  -15.0990  -26.3470   -8.3690 C   0  0  0  0  0  0  0  0  0  0  0  0
  1  2  1  0  0  0  0
  1 18  1  0  0  0  0
  2  3  1  0  0  0  0
  3 10  1  0  0  0  0
  4  5  1  0  0  0  0
  4  3  1  0  0  0  0
  5  6  1  0  0  0  0
  6  8  1  0  0  0  0
  6  7  1  0  0  0  0
  6  9  1  0  0  0  0
 10  9  1  0  0  0  0
 11  2  2  0  0  0  0
 12 17  1  0  0  0  0
 12 11  2  0  0  0  0
 13 12  1  0  0  0  0
 14 15  2  0  0  0  0
 14 13  1  0  0  0  0
 15 16  1  0  0  0  0
 16 17  2  0  0  0  0
 17  1  1  0  0  0  0
 18 19  1  0  0  0  0
 19 20  1  0  0  0  0
 20 21  2  0  0  0  0
 22 21  1  0  0  0  0
 23 22  2  0  0  0  0
 24 19  2  0  0  0  0
 24 23  1  0  0  0  0
M  END
>  <minimizedAffinity>
-7.61190128

$$$$

 OpenBabel12271914493D

 24 27  0  0  0  0  0  0  0  0999 V2000
  -17.8080  -27.2370   -8.9100 N   0  0  0  0  0  0  0  0  0  0  0  0
  -19.0210  -26.9870   -9.5160 C   0  0  0  0  0  0  0  0  0  0  0  0
  -19.4000  -27.4970  -10.7470 N   0  0  0  0  0  0  0  0  0  0  0  0
  -20.6750  -28.2310  -10.7470 C   0  0  0  0  0  0  0  0  0  0  0  0
  -21.8340  -27.3280  -11.2280 C   0  0  0  0  0  0  0  0  0  0  0  0
  -21.5370  -26.6670  -12.5420 N   0  0  0  0  0  0  0  0  0  0  0  0
  -21.6160  -25.6430  -12.4240 H   0  0  0  0  0  0  0  0  0  0  0  0
  -22.2500  -26.9620  -13.2170 H   0  0  0  0  0  0  0  0  0  0  0  0
  -20.1900  -27.0070  -13.0900 C   0  0  0  0  0  0  0  0  0  0  0  0
  -19.0690  -26.8290  -12.0210 C   0  0  0  0  0  0  0  0  0  0  0  0
  -19.8170  -26.3950   -8.6600 N   0  0  0  0  0  0  0  0  0  0  0  0
  -19.1730  -26.3550   -7.4460 C   0  0  0  0  0  0  0  0  0  0  0  0
  -19.6040  -25.9280   -6.1820 C   0  0  0  0  0  0  0  0  0  0  0  0
  -18.7420  -26.0470   -5.0900 C   0  0  0  0  0  0  0  0  0  0  0  0
  -17.4830  -26.5970   -5.2370 C   0  0  0  0  0  0  0  0  0  0  0  0
  -17.0630  -27.0330   -6.4870 C   0  0  0  0  0  0  0  0  0  0  0  0
  -17.9180  -26.8880   -7.5760 C   0  0  0  0  0  0  0  0  0  0  0  0
  -16.7080  -27.9990   -9.4540 C   0  0  0  0  0  0  0  0  0  0  0  0
  -15.4000  -27.2570   -9.5000 C   0  0  0  0  0  0  0  0  0  0  0  0
  -15.2420  -26.1570  -10.3540 C   0  0  0  0  0  0  0  0  0  0  0  0
  -14.0590  -25.4360  -10.3750 C   0  0  0  0  0  0  0  0  0  0  0  0
  -13.0070  -25.7870   -9.5390 C   0  0  0  0  0  0  0  0  0  0  0  0
  -13.1490  -26.8820   -8.6950 C   0  0  0  0  0  0  0  0  0  0  0  0
  -14.3260  -27.6070   -8.6830 C   0  0  0  0  0  0  0  0  0  0  0  0
  1 17  1  0  0  0  0
  2  1  1  0  0  0  0
  2 11  2  0  0  0  0
  3  4  1  0  0  0  0
  3  2  1  0  0  0  0
  5  4  1  0  0  0  0
  6  7  1  0  0  0  0
  6  5  1  0  0  0  0
  8  6  1  0  0  0  0
  9  6  1  0  0  0  0
  9 10  1  0  0  0  0
 10  3  1  0  0  0  0
 11 12  2  0  0  0  0
 12 13  1  0  0  0  0
 13 14  1  0  0  0  0
 15 14  2  0  0  0  0
 16 15  1  0  0  0  0
 17 12  1  0  0  0  0
 17 16  2  0  0  0  0
 18  1  1  0  0  0  0
 19 18  1  0  0  0  0
 19 24  2  0  0  0  0
 20 19  1  0  0  0  0
 21 20  2  0  0  0  0
 21 22  1  0  0  0  0
 22 23  2  0  0  0  0
 23 24  1  0  0  0  0
M  END
>  <minimizedAffinity>
-7.50814867

$$$$

 OpenBabel12271914493D

 24 27  0  0  0  0  0  0  0  0999 V2000
  -15.9420  -26.8490  -11.8620 N   0  0  0  0  0  0  0  0  0  0  0  0
  -16.8330  -27.8870  -12.0360 C   0  0  0  0  0  0  0  0  0  0  0  0
  -18.0160  -28.0290  -11.3290 N   0  0  0  0  0  0  0  0  0  0  0  0
  -19.2210  -28.1700  -12.1620 C   0  0  0  0  0  0  0  0  0  0  0  0
  -19.6170  -29.6560  -12.3170 C   0  0  0  0  0  0  0  0  0  0  0  0
  -19.7320  -30.3570  -10.9950 N   0  0  0  0  0  0  0  0  0  0  0  0
  -19.0960  -31.1730  -10.9960 H   0  0  0  0  0  0  0  0  0  0  0  0
  -20.6910  -30.7070  -10.9000 H   0  0  0  0  0  0  0  0  0  0  0  0
  -19.4230  -29.4820   -9.8260 C   0  0  0  0  0  0  0  0  0  0  0  0
  -18.0850  -28.7070  -10.0200 C   0  0  0  0  0  0  0  0  0  0  0  0
  -16.4980  -28.5690  -13.1030 N   0  0  0  0  0  0  0  0  0  0  0  0
  -15.4500  -27.9150  -13.7080 C   0  0  0  0  0  0  0  0  0  0  0  0
  -14.7830  -28.1540  -14.9180 C   0  0  0  0  0  0  0  0  0  0  0  0
  -13.7660  -27.2850  -15.3200 C   0  0  0  0  0  0  0  0  0  0  0  0
  -13.4260  -26.1870  -14.5530 C   0  0  0  0  0  0  0  0  0  0  0  0
  -14.0990  -25.9440  -13.3620 C   0  0  0  0  0  0  0  0  0  0  0  0
  -15.0940  -26.8280  -12.9540 C   0  0  0  0  0  0  0  0  0  0  0  0
  -16.0350  -25.7800  -10.8950 C   0  0  0  0  0  0  0  0  0  0  0  0
  -15.4420  -26.1040   -9.5510 C   0  0  0  0  0  0  0  0  0  0  0  0
  -15.9120  -25.4590   -8.3980 C   0  0  0  0  0  0  0  0  0  0  0  0
  -15.4080  -25.7800   -7.1480 C   0  0  0  0  0  0  0  0  0  0  0  0
  -14.4280  -26.7550   -7.0140 C   0  0  0  0  0  0  0  0  0  0  0  0
  -13.9480  -27.3940   -8.1510 C   0  0  0  0  0  0  0  0  0  0  0  0
  -14.4450  -27.0660   -9.3990 C   0  0  0  0  0  0  0  0  0  0  0  0
  1 18  1  0  0  0  0
  2  1  1  0  0  0  0
  2  3  1  0  0  0  0
  3 10  1  0  0  0  0
  4  3  1  0  0  0  0
  5  4  1  0  0  0  0
  5  6  1  0  0  0  0
  6  8  1  0  0  0  0
  6  9  1  0  0  0  0
  7  6  1  0  0  0  0
 10  9  1  0  0  0  0
 11  2  2  0  0  0  0
 12 11  2  0  0  0  0
 12 17  1  0  0  0  0
 13 12  1  0  0  0  0
 14 13  1  0  0  0  0
 14 15  2  0  0  0  0
 15 16  1  0  0  0  0
 16 17  2  0  0  0  0
 17  1  1  0  0  0  0
 18 19  1  0  0  0  0
 19 24  2  0  0  0  0
 19 20  1  0  0  0  0
 20 21  2  0  0  0  0
 21 22  1  0  0  0  0
 23 22  2  0  0  0  0
 24 23  1  0  0  0  0
M  END
>  <minimizedAffinity>
-7.45871258

$$$$
