
 OpenBabel12271914533D

 25 29  0  0  1  0  0  0  0  0999 V2000
  -14.2660  -27.2480   -7.0330 C   0  0  1  0  0  0  0  0  0  0  0  0
  -15.0630  -26.1340   -7.7560 C   0  0  1  0  0  0  0  0  0  0  0  0
  -14.8420  -26.1730   -9.2380 C   0  0  0  0  0  0  0  0  0  0  0  0
  -13.6050  -25.6140   -9.6190 C   0  0  0  0  0  0  0  0  0  0  0  0
  -13.2420  -25.5620  -10.9440 C   0  0  0  0  0  0  0  0  0  0  0  0
  -12.0960  -25.0360  -11.4760 O   0  0  0  0  0  0  0  0  0  0  0  0
  -12.4030  -24.9740  -12.8910 C   0  0  0  0  0  0  0  0  0  0  0  0
  -13.4810  -25.9000  -13.1600 O   0  0  0  0  0  0  0  0  0  0  0  0
  -14.0330  -26.0640  -11.9310 C   0  0  0  0  0  0  0  0  0  0  0  0
  -15.2340  -26.6390  -11.6070 C   0  0  0  0  0  0  0  0  0  0  0  0
  -15.6620  -26.6910  -10.2650 C   0  0  0  0  0  0  0  0  0  0  0  0
  -17.0020  -27.3350  -10.0980 C   0  0  0  0  0  0  0  0  0  0  0  0
  -17.8390  -26.5080   -9.1690 C   0  0  0  0  0  0  0  0  0  0  0  0
  -17.5290  -26.9000   -7.7620 N   0  0  2  0  0  0  0  0  0  0  0  0
  -17.3150  -27.9080   -7.7270 H   0  0  0  0  0  0  0  0  0  0  0  0
  -18.7030  -26.5920   -6.8950 C   0  0  0  0  0  0  0  0  0  0  0  0
  -18.5410  -25.1010   -6.5940 C   0  0  0  0  0  0  0  0  0  0  0  0
  -17.0740  -24.7690   -6.8900 C   0  0  0  0  0  0  0  0  0  0  0  0
  -16.4390  -26.1320   -7.1010 C   0  0  2  0  0  0  0  0  0  0  0  0
  -16.1410  -26.7290   -5.7660 C   0  0  0  0  0  0  0  0  0  0  0  0
  -14.9710  -27.3370   -5.7340 C   0  0  1  0  0  0  0  0  0  0  0  0
  -14.3640  -28.4860   -7.7150 O   0  0  0  0  0  0  0  0  0  0  0  0
  -13.4490  -28.7680   -7.9240 H   0  0  0  0  0  0  0  0  0  0  0  0
  -14.5110  -27.9700   -4.6020 O   0  0  0  0  0  0  0  0  0  0  0  0
  -15.4490  -28.3810   -3.6130 C   0  0  0  0  0  0  0  0  0  0  0  0
  1 22  1  6  0  0  0
  1 21  1  0  0  0  0
  2 19  1  6  0  0  0
  2  1  1  0  0  0  0
  3  2  1  0  0  0  0
  4  3  1  0  0  0  0
  5  4  2  0  0  0  0
  6  5  1  0  0  0  0
  7  6  1  0  0  0  0
  8  7  1  0  0  0  0
  8  9  1  0  0  0  0
  9 10  2  0  0  0  0
  9  5  1  0  0  0  0
 10 11  1  0  0  0  0
 11 12  1  0  0  0  0
 11  3  2  0  0  0  0
 12 13  1  0  0  0  0
 13 14  1  0  0  0  0
 14 15  1  0  0  0  0
 14 19  1  1  0  0  0
 14 16  1  0  0  0  0
 16 17  1  0  0  0  0
 18 17  1  0  0  0  0
 19 18  1  1  0  0  0
 19 20  1  0  0  0  0
 20 21  1  0  0  0  0
 21 24  1  6  0  0  0
 23 22  1  0  0  0  0
 24 25  1  0  0  0  0
M  END
>  <minimizedAffinity>
-8.73648643

$$$$

 OpenBabel12271914533D

 25 29  0  0  1  0  0  0  0  0999 V2000
  -13.6870  -26.0230   -8.5530 C   0  0  1  0  0  0  0  0  0  0  0  0
  -14.8730  -27.0190   -8.5330 C   0  0  1  0  0  0  0  0  0  0  0  0
  -15.5440  -27.0480   -7.1930 C   0  0  0  0  0  0  0  0  0  0  0  0
  -14.8260  -27.7980   -6.2400 C   0  0  0  0  0  0  0  0  0  0  0  0
  -15.3010  -27.9340   -4.9570 C   0  0  0  0  0  0  0  0  0  0  0  0
  -14.7390  -28.6410   -3.9290 O   0  0  0  0  0  0  0  0  0  0  0  0
  -15.8110  -28.6870   -2.9540 C   0  0  0  0  0  0  0  0  0  0  0  0
  -16.7360  -27.6150   -3.2470 O   0  0  0  0  0  0  0  0  0  0  0  0
  -16.4550  -27.3410   -4.5460 C   0  0  0  0  0  0  0  0  0  0  0  0
  -17.1760  -26.5820   -5.4310 C   0  0  0  0  0  0  0  0  0  0  0  0
  -16.7430  -26.4350   -6.7650 C   0  0  0  0  0  0  0  0  0  0  0  0
  -17.6590  -25.5910   -7.5920 C   0  0  0  0  0  0  0  0  0  0  0  0
  -17.8940  -26.2590   -8.9140 C   0  0  0  0  0  0  0  0  0  0  0  0
  -16.7880  -25.8860   -9.8460 N   0  0  2  0  0  0  0  0  0  0  0  0
  -16.4820  -24.9230   -9.6450 H   0  0  0  0  0  0  0  0  0  0  0  0
  -17.2720  -25.9930  -11.2520 C   0  0  0  0  0  0  0  0  0  0  0  0
  -17.1330  -27.4830  -11.5640 C   0  0  0  0  0  0  0  0  0  0  0  0
  -16.1540  -28.0420  -10.5260 C   0  0  0  0  0  0  0  0  0  0  0  0
  -15.6100  -26.7970   -9.8490 C   0  0  2  0  0  0  0  0  0  0  0  0
  -14.5320  -26.2220  -10.7060 C   0  0  0  0  0  0  0  0  0  0  0  0
  -13.4990  -25.7980  -10.0040 C   0  0  1  0  0  0  0  0  0  0  0  0
  -14.0220  -24.8010   -7.9200 O   0  0  0  0  0  0  0  0  0  0  0  0
  -13.3700  -24.6670   -7.2000 H   0  0  0  0  0  0  0  0  0  0  0  0
  -12.4040  -25.2170  -10.6000 O   0  0  0  0  0  0  0  0  0  0  0  0
  -12.3980  -25.0470  -12.0140 C   0  0  0  0  0  0  0  0  0  0  0  0
  1  2  1  0  0  0  0
  1 22  1  1  0  0  0
  2 19  1  6  0  0  0
  2  3  1  0  0  0  0
  3 11  2  0  0  0  0
  3  4  1  0  0  0  0
  4  5  2  0  0  0  0
  5  9  1  0  0  0  0
  5  6  1  0  0  0  0
  6  7  1  0  0  0  0
  8  7  1  0  0  0  0
  9  8  1  0  0  0  0
 10  9  2  0  0  0  0
 11 10  1  0  0  0  0
 12 11  1  0  0  0  0
 13 12  1  0  0  0  0
 14 19  1  1  0  0  0
 14 15  1  0  0  0  0
 14 13  1  0  0  0  0
 16 14  1  0  0  0  0
 17 16  1  0  0  0  0
 17 18  1  0  0  0  0
 18 19  1  0  0  0  0
 19 20  1  6  0  0  0
 20 21  1  0  0  0  0
 21 24  1  1  0  0  0
 21  1  1  0  0  0  0
 22 23  1  0  0  0  0
 25 24  1  0  0  0  0
M  END
>  <minimizedAffinity>
-8.5179472

$$$$

 OpenBabel12271914533D

 25 29  0  0  1  0  0  0  0  0999 V2000
  -16.1000  -26.6500  -11.9530 C   0  0  1  0  0  0  0  0  0  0  0  0
  -16.6050  -26.0410  -10.6210 C   0  0  1  0  0  0  0  0  0  0  0  0
  -18.0200  -26.4430  -10.3350 C   0  0  0  0  0  0  0  0  0  0  0  0
  -18.9590  -25.7110  -11.0890 C   0  0  0  0  0  0  0  0  0  0  0  0
  -20.3060  -25.9480  -10.9470 C   0  0  0  0  0  0  0  0  0  0  0  0
  -21.3370  -25.3130  -11.5840 O   0  0  0  0  0  0  0  0  0  0  0  0
  -22.4920  -25.7430  -10.8220 C   0  0  0  0  0  0  0  0  0  0  0  0
  -22.1430  -26.9570  -10.1180 O   0  0  0  0  0  0  0  0  0  0  0  0
  -20.7870  -26.9010  -10.1040 C   0  0  0  0  0  0  0  0  0  0  0  0
  -19.9120  -27.6550   -9.3670 C   0  0  0  0  0  0  0  0  0  0  0  0
  -18.5230  -27.4310   -9.4590 C   0  0  0  0  0  0  0  0  0  0  0  0
  -17.7210  -28.3290   -8.5720 C   0  0  0  0  0  0  0  0  0  0  0  0
  -16.6790  -27.5230   -7.8570 C   0  0  0  0  0  0  0  0  0  0  0  0
  -15.4780  -27.3990   -8.7360 N   0  0  2  0  0  0  0  0  0  0  0  0
  -15.3710  -28.2600   -9.2920 H   0  0  0  0  0  0  0  0  0  0  0  0
  -14.2700  -27.1760   -7.8910 C   0  0  0  0  0  0  0  0  0  0  0  0
  -14.3080  -25.6740   -7.6050 C   0  0  0  0  0  0  0  0  0  0  0  0
  -15.2270  -25.0660   -8.6700 C   0  0  0  0  0  0  0  0  0  0  0  0
  -15.4540  -26.2140   -9.6370 C   0  0  2  0  0  0  0  0  0  0  0  0
  -14.2810  -26.3030  -10.5540 C   0  0  0  0  0  0  0  0  0  0  0  0
  -14.6320  -26.5450  -11.8020 C   0  0  1  0  0  0  0  0  0  0  0  0
  -16.4720  -28.0110  -12.0780 O   0  0  0  0  0  0  0  0  0  0  0  0
  -16.9880  -28.0890  -12.9080 H   0  0  0  0  0  0  0  0  0  0  0  0
  -13.7000  -26.6820  -12.8050 O   0  0  0  0  0  0  0  0  0  0  0  0
  -13.9220  -26.0210  -14.0460 C   0  0  0  0  0  0  0  0  0  0  0  0
  1 22  1  1  0  0  0
  1 21  1  0  0  0  0
  1  2  1  0  0  0  0
  2  3  1  0  0  0  0
  2 19  1  1  0  0  0
  3 11  2  0  0  0  0
  4  5  2  0  0  0  0
  4  3  1  0  0  0  0
  5  9  1  0  0  0  0
  6  5  1  0  0  0  0
  6  7  1  0  0  0  0
  7  8  1  0  0  0  0
  8  9  1  0  0  0  0
  9 10  2  0  0  0  0
 11 10  1  0  0  0  0
 11 12  1  0  0  0  0
 12 13  1  0  0  0  0
 14 19  1  6  0  0  0
 14 16  1  0  0  0  0
 14 13  1  0  0  0  0
 15 14  1  0  0  0  0
 16 17  1  0  0  0  0
 18 17  1  0  0  0  0
 19 20  1  6  0  0  0
 19 18  1  0  0  0  0
 21 24  1  1  0  0  0
 21 20  1  0  0  0  0
 23 22  1  0  0  0  0
 25 24  1  0  0  0  0
M  END
>  <minimizedAffinity>
-7.83608961

$$$$

 OpenBabel12271914533D

 25 29  0  0  1  0  0  0  0  0999 V2000
  -17.5610  -27.2300   -7.4550 C   0  0  1  0  0  0  0  0  0  0  0  0
  -16.6020  -27.7100   -8.5730 C   0  0  1  0  0  0  0  0  0  0  0  0
  -17.2810  -27.7270   -9.9090 C   0  0  0  0  0  0  0  0  0  0  0  0
  -18.1260  -28.8420  -10.0780 C   0  0  0  0  0  0  0  0  0  0  0  0
  -18.8240  -29.0190  -11.2490 C   0  0  0  0  0  0  0  0  0  0  0  0
  -19.6610  -30.0510  -11.5750 O   0  0  0  0  0  0  0  0  0  0  0  0
  -19.8420  -29.8730  -13.0020 C   0  0  0  0  0  0  0  0  0  0  0  0
  -19.5160  -28.5030  -13.3310 O   0  0  0  0  0  0  0  0  0  0  0  0
  -18.7530  -28.1270  -12.2740 C   0  0  0  0  0  0  0  0  0  0  0  0
  -17.9630  -27.0140  -12.1480 C   0  0  0  0  0  0  0  0  0  0  0  0
  -17.2080  -26.8040  -10.9760 C   0  0  0  0  0  0  0  0  0  0  0  0
  -16.3900  -25.5520  -11.0190 C   0  0  0  0  0  0  0  0  0  0  0  0
  -15.0050  -25.8450  -10.5260 C   0  0  0  0  0  0  0  0  0  0  0  0
  -14.9920  -25.7440   -9.0360 N   0  0  2  0  0  0  0  0  0  0  0  0
  -15.6510  -25.0110   -8.7360 H   0  0  0  0  0  0  0  0  0  0  0  0
  -13.6120  -25.4170   -8.5760 C   0  0  0  0  0  0  0  0  0  0  0  0
  -12.9090  -26.7750   -8.5650 C   0  0  0  0  0  0  0  0  0  0  0  0
  -14.0250  -27.8270   -8.5470 C   0  0  0  0  0  0  0  0  0  0  0  0
  -15.2780  -27.0060   -8.2990 C   0  0  2  0  0  0  0  0  0  0  0  0
  -15.3800  -26.7240   -6.8380 C   0  0  0  0  0  0  0  0  0  0  0  0
  -16.6140  -26.8380   -6.3860 C   0  0  1  0  0  0  0  0  0  0  0  0
  -18.3140  -26.1010   -7.8630 O   0  0  0  0  0  0  0  0  0  0  0  0
  -19.2600  -26.3440   -7.7720 H   0  0  0  0  0  0  0  0  0  0  0  0
  -16.9310  -26.6020   -5.0680 O   0  0  0  0  0  0  0  0  0  0  0  0
  -18.2950  -26.4100   -4.7100 C   0  0  0  0  0  0  0  0  0  0  0  0
  1 22  1  6  0  0  0
  1 21  1  0  0  0  0
  2 19  1  6  0  0  0
  2  1  1  0  0  0  0
  3  2  1  0  0  0  0
  4  3  1  0  0  0  0
  5  4  2  0  0  0  0
  6  5  1  0  0  0  0
  7  6  1  0  0  0  0
  8  7  1  0  0  0  0
  8  9  1  0  0  0  0
  9 10  2  0  0  0  0
  9  5  1  0  0  0  0
 10 11  1  0  0  0  0
 11  3  2  0  0  0  0
 12 11  1  0  0  0  0
 12 13  1  0  0  0  0
 13 14  1  0  0  0  0
 14 15  1  0  0  0  0
 14 16  1  0  0  0  0
 14 19  1  1  0  0  0
 16 17  1  0  0  0  0
 17 18  1  0  0  0  0
 19 18  1  6  0  0  0
 19 20  1  0  0  0  0
 20 21  1  0  0  0  0
 21 24  1  6  0  0  0
 22 23  1  0  0  0  0
 24 25  1  0  0  0  0
M  END
>  <minimizedAffinity>
-7.70926046

$$$$

 OpenBabel12271914533D

 25 29  0  0  1  0  0  0  0  0999 V2000
  -18.2390  -27.3320   -8.8490 C   0  0  1  0  0  0  0  0  0  0  0  0
  -16.8080  -27.6250   -9.3660 C   0  0  1  0  0  0  0  0  0  0  0  0
  -16.7580  -27.6340  -10.8640 C   0  0  0  0  0  0  0  0  0  0  0  0
  -17.2620  -28.8270  -11.4200 C   0  0  0  0  0  0  0  0  0  0  0  0
  -17.2860  -29.0070  -12.7830 C   0  0  0  0  0  0  0  0  0  0  0  0
  -17.7200  -30.1060  -13.4730 O   0  0  0  0  0  0  0  0  0  0  0  0
  -17.2190  -29.8590  -14.8100 C   0  0  0  0  0  0  0  0  0  0  0  0
  -16.9610  -28.4420  -14.9410 O   0  0  0  0  0  0  0  0  0  0  0  0
  -16.8530  -28.0490  -13.6460 C   0  0  0  0  0  0  0  0  0  0  0  0
  -16.3760  -26.8620  -13.1540 C   0  0  0  0  0  0  0  0  0  0  0  0
  -16.3070  -26.6420  -11.7630 C   0  0  0  0  0  0  0  0  0  0  0  0
  -15.7440  -25.3030  -11.4060 C   0  0  0  0  0  0  0  0  0  0  0  0
  -14.7370  -25.4640  -10.3070 C   0  0  0  0  0  0  0  0  0  0  0  0
  -15.4510  -25.4590   -8.9950 N   0  0  2  0  0  0  0  0  0  0  0  0
  -16.2640  -24.8280   -9.0500 H   0  0  0  0  0  0  0  0  0  0  0  0
  -14.5150  -25.0040   -7.9270 C   0  0  0  0  0  0  0  0  0  0  0  0
  -13.7290  -26.2690   -7.5790 C   0  0  0  0  0  0  0  0  0  0  0  0
  -14.5670  -27.4420   -8.1020 C   0  0  0  0  0  0  0  0  0  0  0  0
  -15.8830  -26.7910   -8.4880 C   0  0  2  0  0  0  0  0  0  0  0  0
  -16.7070  -26.6180   -7.2570 C   0  0  0  0  0  0  0  0  0  0  0  0
  -17.9790  -26.9030   -7.4560 C   0  0  1  0  0  0  0  0  0  0  0  0
  -18.8480  -26.2750   -9.5680 O   0  0  0  0  0  0  0  0  0  0  0  0
  -19.6810  -26.6310   -9.9440 H   0  0  0  0  0  0  0  0  0  0  0  0
  -18.9150  -26.7920   -6.4530 O   0  0  0  0  0  0  0  0  0  0  0  0
  -18.5870  -26.0490   -5.2840 C   0  0  0  0  0  0  0  0  0  0  0  0
  1 22  1  6  0  0  0
  1 21  1  0  0  0  0
  2  1  1  0  0  0  0
  2 19  1  1  0  0  0
  3  2  1  0  0  0  0
  4  3  1  0  0  0  0
  5  4  2  0  0  0  0
  6  5  1  0  0  0  0
  7  6  1  0  0  0  0
  8  7  1  0  0  0  0
  8  9  1  0  0  0  0
  9 10  2  0  0  0  0
  9  5  1  0  0  0  0
 10 11  1  0  0  0  0
 11 12  1  0  0  0  0
 11  3  2  0  0  0  0
 12 13  1  0  0  0  0
 13 14  1  0  0  0  0
 14 19  1  1  0  0  0
 14 16  1  0  0  0  0
 15 14  1  0  0  0  0
 16 17  1  0  0  0  0
 18 17  1  0  0  0  0
 19 18  1  1  0  0  0
 19 20  1  0  0  0  0
 21 20  1  0  0  0  0
 21 24  1  6  0  0  0
 23 22  1  0  0  0  0
 24 25  1  0  0  0  0
M  END
>  <minimizedAffinity>
-7.69901848

$$$$

 OpenBabel12271914533D

 25 29  0  0  1  0  0  0  0  0999 V2000
  -18.4590  -28.4160  -11.3090 C   0  0  1  0  0  0  0  0  0  0  0  0
  -18.1510  -26.9800  -10.8180 C   0  0  1  0  0  0  0  0  0  0  0  0
  -18.8520  -26.6780   -9.5280 C   0  0  0  0  0  0  0  0  0  0  0  0
  -20.2190  -26.3830   -9.7080 C   0  0  0  0  0  0  0  0  0  0  0  0
  -21.0140  -26.0760   -8.6290 C   0  0  0  0  0  0  0  0  0  0  0  0
  -22.3430  -25.7480   -8.6370 O   0  0  0  0  0  0  0  0  0  0  0  0
  -22.5490  -25.2310   -7.2990 C   0  0  0  0  0  0  0  0  0  0  0  0
  -21.4890  -25.7320   -6.4520 O   0  0  0  0  0  0  0  0  0  0  0  0
  -20.5350  -26.0680   -7.3560 C   0  0  0  0  0  0  0  0  0  0  0  0
  -19.2170  -26.3720   -7.1290 C   0  0  0  0  0  0  0  0  0  0  0  0
  -18.3560  -26.6660   -8.2060 C   0  0  0  0  0  0  0  0  0  0  0  0
  -16.9530  -26.9550   -7.7760 C   0  0  0  0  0  0  0  0  0  0  0  0
  -15.9980  -26.2160   -8.6660 C   0  0  0  0  0  0  0  0  0  0  0  0
  -15.7420  -27.0390   -9.8860 N   0  0  2  0  0  0  0  0  0  0  0  0
  -15.7630  -28.0380   -9.6360 H   0  0  0  0  0  0  0  0  0  0  0  0
  -14.4130  -26.6760  -10.4540 C   0  0  0  0  0  0  0  0  0  0  0  0
  -14.7060  -25.4180  -11.2730 C   0  0  0  0  0  0  0  0  0  0  0  0
  -16.2200  -25.4170  -11.5150 C   0  0  0  0  0  0  0  0  0  0  0  0
  -16.6540  -26.7910  -11.0370 C   0  0  2  0  0  0  0  0  0  0  0  0
  -16.3790  -27.7800  -12.1190 C   0  0  0  0  0  0  0  0  0  0  0  0
  -17.3500  -28.6610  -12.2590 C   0  0  1  0  0  0  0  0  0  0  0  0
  -18.3950  -29.3550  -10.2500 O   0  0  0  0  0  0  0  0  0  0  0  0
  -19.2680  -29.8010  -10.2140 H   0  0  0  0  0  0  0  0  0  0  0  0
  -17.2880  -29.6710  -13.1910 O   0  0  0  0  0  0  0  0  0  0  0  0
  -18.4570  -29.9980  -13.9330 C   0  0  0  0  0  0  0  0  0  0  0  0
  1  2  1  0  0  0  0
  1 22  1  1  0  0  0
  2 19  1  1  0  0  0
  2  3  1  0  0  0  0
  3 11  1  0  0  0  0
  4  3  2  0  0  0  0
  4  5  1  0  0  0  0
  5  9  2  0  0  0  0
  6  5  1  0  0  0  0
  6  7  1  0  0  0  0
  7  8  1  0  0  0  0
  9 10  1  0  0  0  0
  9  8  1  0  0  0  0
 11 12  1  0  0  0  0
 11 10  2  0  0  0  0
 13 12  1  0  0  0  0
 14 19  1  6  0  0  0
 14 15  1  0  0  0  0
 14 13  1  0  0  0  0
 16 14  1  0  0  0  0
 17 16  1  0  0  0  0
 18 17  1  0  0  0  0
 18 19  1  0  0  0  0
 19 20  1  6  0  0  0
 21 24  1  1  0  0  0
 21 20  1  0  0  0  0
 21  1  1  0  0  0  0
 22 23  1  0  0  0  0
 25 24  1  0  0  0  0
M  END
>  <minimizedAffinity>
-7.57956791

$$$$

 OpenBabel12271914533D

 25 29  0  0  1  0  0  0  0  0999 V2000
  -17.8770  -28.5350  -10.7550 C   0  0  1  0  0  0  0  0  0  0  0  0
  -17.2580  -27.1710  -10.3570 C   0  0  1  0  0  0  0  0  0  0  0  0
  -17.0000  -27.0950   -8.8820 C   0  0  0  0  0  0  0  0  0  0  0  0
  -18.1690  -26.8460   -8.1360 C   0  0  0  0  0  0  0  0  0  0  0  0
  -18.1140  -26.7400   -6.7660 C   0  0  0  0  0  0  0  0  0  0  0  0
  -19.1460  -26.4810   -5.9060 O   0  0  0  0  0  0  0  0  0  0  0  0
  -18.4570  -26.1750   -4.6680 C   0  0  0  0  0  0  0  0  0  0  0  0
  -17.1280  -26.7400   -4.7390 O   0  0  0  0  0  0  0  0  0  0  0  0
  -16.9510  -26.8930   -6.0760 C   0  0  0  0  0  0  0  0  0  0  0  0
  -15.7920  -27.1600   -6.7560 C   0  0  0  0  0  0  0  0  0  0  0  0
  -15.7940  -27.2510   -8.1630 C   0  0  0  0  0  0  0  0  0  0  0  0
  -14.4410  -27.5280   -8.7380 C   0  0  0  0  0  0  0  0  0  0  0  0
  -14.2020  -26.6210   -9.9080 C   0  0  0  0  0  0  0  0  0  0  0  0
  -14.7950  -27.2440  -11.1290 N   0  0  2  0  0  0  0  0  0  0  0  0
  -14.7080  -28.2690  -11.0680 H   0  0  0  0  0  0  0  0  0  0  0  0
  -14.0820  -26.7360  -12.3360 C   0  0  0  0  0  0  0  0  0  0  0  0
  -14.7530  -25.3890  -12.6060 C   0  0  0  0  0  0  0  0  0  0  0  0
  -16.0920  -25.4290  -11.8600 C   0  0  0  0  0  0  0  0  0  0  0  0
  -16.2080  -26.8780  -11.4210 C   0  0  2  0  0  0  0  0  0  0  0  0
  -16.7090  -27.6840  -12.5720 C   0  0  0  0  0  0  0  0  0  0  0  0
  -17.6030  -28.5830  -12.2090 C   0  0  1  0  0  0  0  0  0  0  0  0
  -17.2210  -29.6130  -10.1110 O   0  0  0  0  0  0  0  0  0  0  0  0
  -17.9070  -30.1030   -9.6100 H   0  0  0  0  0  0  0  0  0  0  0  0
  -18.1800  -29.4430  -13.1160 O   0  0  0  0  0  0  0  0  0  0  0  0
  -19.5780  -29.6940  -13.0340 C   0  0  0  0  0  0  0  0  0  0  0  0
  1  2  1  0  0  0  0
  1 22  1  1  0  0  0
  2 19  1  6  0  0  0
  2  3  1  0  0  0  0
  3 11  2  0  0  0  0
  3  4  1  0  0  0  0
  4  5  2  0  0  0  0
  5  9  1  0  0  0  0
  5  6  1  0  0  0  0
  6  7  1  0  0  0  0
  8  7  1  0  0  0  0
  9  8  1  0  0  0  0
 10  9  2  0  0  0  0
 11 10  1  0  0  0  0
 12 11  1  0  0  0  0
 13 12  1  0  0  0  0
 14 19  1  6  0  0  0
 14 15  1  0  0  0  0
 14 13  1  0  0  0  0
 16 14  1  0  0  0  0
 17 16  1  0  0  0  0
 17 18  1  0  0  0  0
 18 19  1  0  0  0  0
 19 20  1  6  0  0  0
 20 21  1  0  0  0  0
 21 24  1  1  0  0  0
 21  1  1  0  0  0  0
 22 23  1  0  0  0  0
 24 25  1  0  0  0  0
M  END
>  <minimizedAffinity>
-7.44619894

$$$$

 OpenBabel12271914533D

 25 29  0  0  1  0  0  0  0  0999 V2000
  -17.7310  -26.6050  -10.6950 C   0  0  1  0  0  0  0  0  0  0  0  0
  -16.3110  -27.2030  -10.5400 C   0  0  1  0  0  0  0  0  0  0  0  0
  -15.5350  -27.1160  -11.8190 C   0  0  0  0  0  0  0  0  0  0  0  0
  -15.9090  -28.1040  -12.7520 C   0  0  0  0  0  0  0  0  0  0  0  0
  -15.2940  -28.1750  -13.9800 C   0  0  0  0  0  0  0  0  0  0  0  0
  -15.5250  -29.0800  -14.9800 O   0  0  0  0  0  0  0  0  0  0  0  0
  -14.3980  -28.8680  -15.8650 C   0  0  0  0  0  0  0  0  0  0  0  0
  -13.8570  -27.5530  -15.6010 O   0  0  0  0  0  0  0  0  0  0  0  0
  -14.3280  -27.2930  -14.3560 C   0  0  0  0  0  0  0  0  0  0  0  0
  -13.9470  -26.3000  -13.4920 C   0  0  0  0  0  0  0  0  0  0  0  0
  -14.5300  -26.2040  -12.2120 C   0  0  0  0  0  0  0  0  0  0  0  0
  -13.9820  -25.0750  -11.3980 C   0  0  0  0  0  0  0  0  0  0  0  0
  -13.6920  -25.5590  -10.0080 C   0  0  0  0  0  0  0  0  0  0  0  0
  -14.9430  -25.4720   -9.1970 N   0  0  2  0  0  0  0  0  0  0  0  0
  -15.4950  -24.6580   -9.5040 H   0  0  0  0  0  0  0  0  0  0  0  0
  -14.5860  -25.3410   -7.7550 C   0  0  0  0  0  0  0  0  0  0  0  0
  -14.3150  -26.7820   -7.3220 C   0  0  0  0  0  0  0  0  0  0  0  0
  -14.9860  -27.6710   -8.3760 C   0  0  0  0  0  0  0  0  0  0  0  0
  -15.8010  -26.6890   -9.1990 C   0  0  2  0  0  0  0  0  0  0  0  0
  -17.0750  -26.4070   -8.4770 C   0  0  0  0  0  0  0  0  0  0  0  0
  -18.1150  -26.3540   -9.2880 C   0  0  1  0  0  0  0  0  0  0  0  0
  -17.7060  -25.3810  -11.4080 O   0  0  0  0  0  0  0  0  0  0  0  0
  -18.2960  -25.4920  -12.1830 H   0  0  0  0  0  0  0  0  0  0  0  0
  -19.3840  -26.0880   -8.8270 O   0  0  0  0  0  0  0  0  0  0  0  0
  -20.4770  -26.8340   -9.3500 C   0  0  0  0  0  0  0  0  0  0  0  0
  1 22  1  6  0  0  0
  1  2  1  0  0  0  0
  1 21  1  0  0  0  0
  2 19  1  1  0  0  0
  3  2  1  0  0  0  0
  4  3  2  0  0  0  0
  5  4  1  0  0  0  0
  6  5  1  0  0  0  0
  7  8  1  0  0  0  0
  7  6  1  0  0  0  0
  8  9  1  0  0  0  0
  9  5  2  0  0  0  0
  9 10  1  0  0  0  0
 10 11  2  0  0  0  0
 11  3  1  0  0  0  0
 11 12  1  0  0  0  0
 12 13  1  0  0  0  0
 13 14  1  0  0  0  0
 14 19  1  6  0  0  0
 14 16  1  0  0  0  0
 15 14  1  0  0  0  0
 16 17  1  0  0  0  0
 18 17  1  0  0  0  0
 19 20  1  1  0  0  0
 19 18  1  0  0  0  0
 21 24  1  6  0  0  0
 21 20  1  0  0  0  0
 23 22  1  0  0  0  0
 25 24  1  0  0  0  0
M  END
>  <minimizedAffinity>
-7.33433485

$$$$

 OpenBabel12271914533D

 25 29  0  0  1  0  0  0  0  0999 V2000
  -15.2650  -26.2100  -11.9650 C   0  0  1  0  0  0  0  0  0  0  0  0
  -16.0370  -27.3960  -11.3360 C   0  0  1  0  0  0  0  0  0  0  0  0
  -16.3320  -27.1530   -9.8870 C   0  0  0  0  0  0  0  0  0  0  0  0
  -15.2120  -27.3700   -9.0590 C   0  0  0  0  0  0  0  0  0  0  0  0
  -15.3060  -27.1980   -7.6980 C   0  0  0  0  0  0  0  0  0  0  0  0
  -14.3260  -27.3880   -6.7620 O   0  0  0  0  0  0  0  0  0  0  0  0
  -15.0690  -27.3720   -5.5180 C   0  0  0  0  0  0  0  0  0  0  0  0
  -16.3270  -26.6960   -5.7510 O   0  0  0  0  0  0  0  0  0  0  0  0
  -16.4590  -26.7930   -7.0980 C   0  0  0  0  0  0  0  0  0  0  0  0
  -17.5680  -26.5460   -7.8650 C   0  0  0  0  0  0  0  0  0  0  0  0
  -17.5280  -26.7350   -9.2610 C   0  0  0  0  0  0  0  0  0  0  0  0
  -18.8300  -26.4370   -9.9340 C   0  0  0  0  0  0  0  0  0  0  0  0
  -19.1440  -27.5270  -10.9150 C   0  0  0  0  0  0  0  0  0  0  0  0
  -18.4620  -27.2220  -12.2080 N   0  0  2  0  0  0  0  0  0  0  0  0
  -18.4380  -26.2010  -12.3500 H   0  0  0  0  0  0  0  0  0  0  0  0
  -19.2020  -27.8810  -13.3220 C   0  0  0  0  0  0  0  0  0  0  0  0
  -18.6780  -29.3170  -13.2980 C   0  0  0  0  0  0  0  0  0  0  0  0
  -17.3580  -29.2700  -12.5200 C   0  0  0  0  0  0  0  0  0  0  0  0
  -17.0920  -27.7830  -12.3660 C   0  0  2  0  0  0  0  0  0  0  0  0
  -16.4830  -27.2760  -13.6300 C   0  0  0  0  0  0  0  0  0  0  0  0
  -15.5030  -26.4210  -13.4110 C   0  0  1  0  0  0  0  0  0  0  0  0
  -15.8110  -24.9640  -11.5690 O   0  0  0  0  0  0  0  0  0  0  0  0
  -15.0860  -24.4580  -11.1450 H   0  0  0  0  0  0  0  0  0  0  0  0
  -14.8180  -25.8200  -14.4420 O   0  0  0  0  0  0  0  0  0  0  0  0
  -13.3980  -25.7410  -14.3730 C   0  0  0  0  0  0  0  0  0  0  0  0
  1 22  1  1  0  0  0
  1  2  1  0  0  0  0
  2 19  1  6  0  0  0
  2  3  1  0  0  0  0
  3 11  2  0  0  0  0
  3  4  1  0  0  0  0
  4  5  2  0  0  0  0
  5  9  1  0  0  0  0
  5  6  1  0  0  0  0
  6  7  1  0  0  0  0
  8  7  1  0  0  0  0
  9  8  1  0  0  0  0
 10  9  2  0  0  0  0
 11 10  1  0  0  0  0
 12 11  1  0  0  0  0
 13 12  1  0  0  0  0
 14 19  1  1  0  0  0
 14 13  1  0  0  0  0
 15 14  1  0  0  0  0
 16 17  1  0  0  0  0
 16 14  1  0  0  0  0
 17 18  1  0  0  0  0
 18 19  1  0  0  0  0
 19 20  1  6  0  0  0
 20 21  1  0  0  0  0
 21 24  1  6  0  0  0
 21  1  1  0  0  0  0
 22 23  1  0  0  0  0
 24 25  1  0  0  0  0
M  END
>  <minimizedAffinity>
-7.2241745

$$$$
