
 OpenBabel12271914403D

 32 35  0  0  1  0  0  0  0  0999 V2000
  -14.3440  -25.6580  -11.0810 C   0  0  0  0  0  0  0  0  0  0  0  0
  -15.1810  -25.8450  -10.0280 C   0  0  0  0  0  0  0  0  0  0  0  0
  -14.6460  -25.9180   -8.6910 C   0  0  0  0  0  0  0  0  0  0  0  0
  -13.2750  -25.8150   -8.5650 C   0  0  0  0  0  0  0  0  0  0  0  0
  -12.4350  -25.6580   -9.5820 N   0  0  0  0  0  0  0  0  0  0  0  0
  -13.0010  -25.5830  -10.8300 C   0  0  0  0  0  0  0  0  0  0  0  0
  -15.5050  -26.1170   -7.5330 C   0  0  0  0  0  0  0  0  0  0  0  0
  -16.7550  -25.4830   -7.4030 C   0  0  0  0  0  0  0  0  0  0  0  0
  -17.5850  -25.6940   -6.2800 C   0  0  0  0  0  0  0  0  0  0  0  0
  -17.0950  -26.5570   -5.2840 C   0  0  0  0  0  0  0  0  0  0  0  0
  -17.6070  -26.9710   -4.1060 N   0  0  0  0  0  0  0  0  0  0  0  0
  -18.4910  -26.7260   -3.6950 H   0  0  0  0  0  0  0  0  0  0  0  0
  -16.7940  -27.8280   -3.4080 N   0  0  0  0  0  0  0  0  0  0  0  0
  -15.7260  -27.9340   -4.2150 C   0  0  0  0  0  0  0  0  0  0  0  0
  -14.5270  -28.7710   -3.8660 C   0  0  0  0  0  0  0  0  0  0  0  0
  -15.8670  -27.1770   -5.3750 C   0  0  0  0  0  0  0  0  0  0  0  0
  -15.0770  -26.9630   -6.4990 C   0  0  0  0  0  0  0  0  0  0  0  0
  -14.6050  -25.4520  -12.3600 O   0  0  0  0  0  0  0  0  0  0  0  0
  -14.8940  -26.2810  -13.5680 C   0  0  0  0  0  0  0  0  0  0  0  0
  -16.3280  -26.8000  -13.5980 C   0  0  1  0  0  0  0  0  0  0  0  0
  -16.7150  -27.1310  -15.0270 N   0  0  0  0  0  0  0  0  0  0  0  0
  -16.5120  -28.1130  -15.2470 H   0  0  0  0  0  0  0  0  0  0  0  0
  -17.7110  -26.9850  -15.1660 H   0  0  0  0  0  0  0  0  0  0  0  0
  -16.2160  -26.5300  -15.6720 H   0  0  0  0  0  0  0  0  0  0  0  0
  -16.6060  -28.0250  -12.7100 C   0  0  0  0  0  0  0  0  0  0  0  0
  -17.6140  -27.6400  -11.6590 C   0  0  0  0  0  0  0  0  0  0  0  0
  -18.3730  -26.4700  -11.8310 C   0  0  0  0  0  0  0  0  0  0  0  0
  -19.2620  -26.0740  -10.8400 C   0  0  0  0  0  0  0  0  0  0  0  0
  -19.3970  -26.8180   -9.6820 C   0  0  0  0  0  0  0  0  0  0  0  0
  -20.6160  -26.2700   -8.3540 Br  0  0  0  0  0  0  0  0  0  0  0  0
  -18.6310  -27.9660   -9.4930 C   0  0  0  0  0  0  0  0  0  0  0  0
  -17.7450  -28.3920  -10.4750 C   0  0  0  0  0  0  0  0  0  0  0  0
  1  6  2  0  0  0  0
  1  2  1  0  0  0  0
  2  3  2  0  0  0  0
  3  4  1  0  0  0  0
  3  7  1  0  0  0  0
  5  4  2  0  0  0  0
  6  5  1  0  0  0  0
  7  8  2  0  0  0  0
  7 17  1  0  0  0  0
  8  9  1  0  0  0  0
  9 10  2  0  0  0  0
 10 11  1  0  0  0  0
 11 12  1  0  0  0  0
 11 13  1  0  0  0  0
 14 15  1  0  0  0  0
 14 13  2  0  0  0  0
 16 10  1  0  0  0  0
 16 14  1  0  0  0  0
 17 16  2  0  0  0  0
 18  1  1  0  0  0  0
 19 18  1  0  0  0  0
 20 19  1  6  0  0  0
 20 25  1  0  0  0  0
 21 20  1  0  0  0  0
 22 21  1  0  0  0  0
 23 21  1  0  0  0  0
 24 21  1  0  0  0  0
 25 26  1  0  0  0  0
 26 32  1  0  0  0  0
 27 26  2  0  0  0  0
 27 28  1  0  0  0  0
 28 29  2  0  0  0  0
 29 31  1  0  0  0  0
 29 30  1  0  0  0  0
 32 31  2  0  0  0  0
M  END
>  <minimizedAffinity>
-8.7543354

$$$$

 OpenBabel12271914403D

 32 35  0  0  1  0  0  0  0  0999 V2000
  -19.1240  -25.9160   -6.0760 C   0  0  0  0  0  0  0  0  0  0  0  0
  -18.1290  -25.7580   -6.9860 C   0  0  0  0  0  0  0  0  0  0  0  0
  -16.7970  -26.2200   -6.6790 C   0  0  0  0  0  0  0  0  0  0  0  0
  -16.6090  -26.7860   -5.4340 C   0  0  0  0  0  0  0  0  0  0  0  0
  -17.5610  -26.9260   -4.5190 N   0  0  0  0  0  0  0  0  0  0  0  0
  -18.8100  -26.4810   -4.8700 C   0  0  0  0  0  0  0  0  0  0  0  0
  -15.7000  -26.0730   -7.6240 C   0  0  0  0  0  0  0  0  0  0  0  0
  -14.3500  -26.1450   -7.2320 C   0  0  0  0  0  0  0  0  0  0  0  0
  -13.2950  -26.0140   -8.1620 C   0  0  0  0  0  0  0  0  0  0  0  0
  -13.6580  -25.7870   -9.5020 C   0  0  0  0  0  0  0  0  0  0  0  0
  -12.9290  -25.6150  -10.6250 N   0  0  0  0  0  0  0  0  0  0  0  0
  -11.9280  -25.6160  -10.7200 H   0  0  0  0  0  0  0  0  0  0  0  0
  -13.6780  -25.4110  -11.7570 N   0  0  0  0  0  0  0  0  0  0  0  0
  -14.9340  -25.4630  -11.2860 C   0  0  0  0  0  0  0  0  0  0  0  0
  -16.1380  -25.2720  -12.1650 C   0  0  0  0  0  0  0  0  0  0  0  0
  -14.9700  -25.6950   -9.9130 C   0  0  0  0  0  0  0  0  0  0  0  0
  -15.9890  -25.8430   -8.9780 C   0  0  0  0  0  0  0  0  0  0  0  0
  -20.4210  -25.6790   -6.1710 O   0  0  0  0  0  0  0  0  0  0  0  0
  -21.3700  -25.1750   -7.2080 C   0  0  0  0  0  0  0  0  0  0  0  0
  -21.6020  -26.1800   -8.3330 C   0  0  1  0  0  0  0  0  0  0  0  0
  -22.9940  -26.7690   -8.2040 N   0  0  0  0  0  0  0  0  0  0  0  0
  -23.6770  -26.2280   -8.7470 H   0  0  0  0  0  0  0  0  0  0  0  0
  -23.0080  -27.7220   -8.5570 H   0  0  0  0  0  0  0  0  0  0  0  0
  -23.2760  -26.7900   -7.2310 H   0  0  0  0  0  0  0  0  0  0  0  0
  -21.4240  -25.6280   -9.7580 C   0  0  0  0  0  0  0  0  0  0  0  0
  -20.3790  -26.4500  -10.4670 C   0  0  0  0  0  0  0  0  0  0  0  0
  -20.2420  -26.3320  -11.8610 C   0  0  0  0  0  0  0  0  0  0  0  0
  -19.3220  -27.1290  -12.5310 C   0  0  0  0  0  0  0  0  0  0  0  0
  -18.5500  -28.0440  -11.8380 C   0  0  0  0  0  0  0  0  0  0  0  0
  -17.3020  -29.1080  -12.7640 Br  0  0  0  0  0  0  0  0  0  0  0  0
  -18.6990  -28.1830  -10.4600 C   0  0  0  0  0  0  0  0  0  0  0  0
  -19.6000  -27.3880   -9.7630 C   0  0  0  0  0  0  0  0  0  0  0  0
  1  6  2  0  0  0  0
  2  3  2  0  0  0  0
  2  1  1  0  0  0  0
  3  4  1  0  0  0  0
  4  5  2  0  0  0  0
  6  5  1  0  0  0  0
  7  8  1  0  0  0  0
  7  3  1  0  0  0  0
  9  8  2  0  0  0  0
 10  9  1  0  0  0  0
 11 10  1  0  0  0  0
 12 11  1  0  0  0  0
 13 14  2  0  0  0  0
 13 11  1  0  0  0  0
 14 16  1  0  0  0  0
 15 14  1  0  0  0  0
 16 10  2  0  0  0  0
 16 17  1  0  0  0  0
 17  7  2  0  0  0  0
 18  1  1  0  0  0  0
 19 18  1  0  0  0  0
 20 25  1  6  0  0  0
 20 21  1  0  0  0  0
 20 19  1  0  0  0  0
 21 24  1  0  0  0  0
 22 21  1  0  0  0  0
 23 21  1  0  0  0  0
 26 32  2  0  0  0  0
 26 25  1  0  0  0  0
 27 26  1  0  0  0  0
 28 27  2  0  0  0  0
 28 29  1  0  0  0  0
 29 31  2  0  0  0  0
 30 29  1  0  0  0  0
 31 32  1  0  0  0  0
M  END
>  <minimizedAffinity>
-8.52497005

$$$$

 OpenBabel12271914403D

 32 35  0  0  1  0  0  0  0  0999 V2000
  -22.0890  -25.6430   -7.1760 C   0  0  0  0  0  0  0  0  0  0  0  0
  -20.7860  -25.7070   -6.7980 C   0  0  0  0  0  0  0  0  0  0  0  0
  -19.7840  -26.1230   -7.7480 C   0  0  0  0  0  0  0  0  0  0  0  0
  -20.2290  -26.4640   -9.0090 C   0  0  0  0  0  0  0  0  0  0  0  0
  -21.5000  -26.4340   -9.3930 N   0  0  0  0  0  0  0  0  0  0  0  0
  -22.4080  -26.0190   -8.4520 C   0  0  0  0  0  0  0  0  0  0  0  0
  -18.3760  -26.2050   -7.3880 C   0  0  0  0  0  0  0  0  0  0  0  0
  -17.9470  -26.5670   -6.0970 C   0  0  0  0  0  0  0  0  0  0  0  0
  -16.5770  -26.6550   -5.7640 C   0  0  0  0  0  0  0  0  0  0  0  0
  -15.6570  -26.3430   -6.7820 C   0  0  0  0  0  0  0  0  0  0  0  0
  -14.3080  -26.3190   -6.8130 N   0  0  0  0  0  0  0  0  0  0  0  0
  -13.6680  -26.5340   -6.0670 H   0  0  0  0  0  0  0  0  0  0  0  0
  -13.7790  -25.9500   -8.0230 N   0  0  0  0  0  0  0  0  0  0  0  0
  -14.8770  -25.7360   -8.7660 C   0  0  0  0  0  0  0  0  0  0  0  0
  -14.8120  -25.2840  -10.1970 C   0  0  0  0  0  0  0  0  0  0  0  0
  -16.0480  -25.9690   -8.0490 C   0  0  0  0  0  0  0  0  0  0  0  0
  -17.4030  -25.9050   -8.3540 C   0  0  0  0  0  0  0  0  0  0  0  0
  -23.1500  -25.1930   -6.5280 O   0  0  0  0  0  0  0  0  0  0  0  0
  -24.4480  -25.7430   -6.0350 C   0  0  0  0  0  0  0  0  0  0  0  0
  -25.3290  -24.6810   -5.3840 C   0  0  1  0  0  0  0  0  0  0  0  0
  -26.1780  -24.0090   -6.4470 N   0  0  0  0  0  0  0  0  0  0  0  0
  -27.0820  -24.4830   -6.5520 H   0  0  0  0  0  0  0  0  0  0  0  0
  -26.3650  -23.0440   -6.1900 H   0  0  0  0  0  0  0  0  0  0  0  0
  -25.6900  -24.0090   -7.3350 H   0  0  0  0  0  0  0  0  0  0  0  0
  -26.2480  -25.1850   -4.2570 C   0  0  0  0  0  0  0  0  0  0  0  0
  -26.3370  -24.1210   -3.1950 C   0  0  0  0  0  0  0  0  0  0  0  0
  -27.3990  -24.1570   -2.2750 C   0  0  0  0  0  0  0  0  0  0  0  0
  -27.5230  -23.1470   -1.3290 C   0  0  0  0  0  0  0  0  0  0  0  0
  -26.6170  -22.1030   -1.2940 C   0  0  0  0  0  0  0  0  0  0  0  0
  -26.7970  -20.7480    0.0030 Br  0  0  0  0  0  0  0  0  0  0  0  0
  -25.5760  -22.0480   -2.2190 C   0  0  0  0  0  0  0  0  0  0  0  0
  -25.4200  -23.0530   -3.1650 C   0  0  0  0  0  0  0  0  0  0  0  0
  1  2  1  0  0  0  0
  1 18  1  0  0  0  0
  3  7  1  0  0  0  0
  3  2  2  0  0  0  0
  4  3  1  0  0  0  0
  5  4  2  0  0  0  0
  5  6  1  0  0  0  0
  6  1  2  0  0  0  0
  7  8  2  0  0  0  0
  8  9  1  0  0  0  0
 10  9  2  0  0  0  0
 11 10  1  0  0  0  0
 11 12  1  0  0  0  0
 13 11  1  0  0  0  0
 14 16  1  0  0  0  0
 14 13  2  0  0  0  0
 15 14  1  0  0  0  0
 16 10  1  0  0  0  0
 17 16  2  0  0  0  0
 17  7  1  0  0  0  0
 18 19  1  0  0  0  0
 20 19  1  6  0  0  0
 20 25  1  0  0  0  0
 21 23  1  0  0  0  0
 21 20  1  0  0  0  0
 22 21  1  0  0  0  0
 24 21  1  0  0  0  0
 25 26  1  0  0  0  0
 26 32  2  0  0  0  0
 26 27  1  0  0  0  0
 27 28  2  0  0  0  0
 28 29  1  0  0  0  0
 29 30  1  0  0  0  0
 31 29  2  0  0  0  0
 32 31  1  0  0  0  0
M  END
>  <minimizedAffinity>
-8.48426628

$$$$

 OpenBabel12271914403D

 32 35  0  0  1  0  0  0  0  0999 V2000
  -17.0890  -27.5400  -10.4860 C   0  0  0  0  0  0  0  0  0  0  0  0
  -18.0450  -26.9000   -9.7650 C   0  0  0  0  0  0  0  0  0  0  0  0
  -19.3900  -27.4220   -9.7350 C   0  0  0  0  0  0  0  0  0  0  0  0
  -19.6310  -28.5560  -10.4830 C   0  0  0  0  0  0  0  0  0  0  0  0
  -18.7190  -29.1830  -11.2160 N   0  0  0  0  0  0  0  0  0  0  0  0
  -17.4550  -28.6510  -11.1980 C   0  0  0  0  0  0  0  0  0  0  0  0
  -20.4460  -26.7690   -8.9750 C   0  0  0  0  0  0  0  0  0  0  0  0
  -20.1890  -26.0390   -7.8000 C   0  0  0  0  0  0  0  0  0  0  0  0
  -21.2220  -25.3990   -7.0790 C   0  0  0  0  0  0  0  0  0  0  0  0
  -22.5280  -25.5440   -7.5810 C   0  0  0  0  0  0  0  0  0  0  0  0
  -23.7230  -25.0840   -7.1550 N   0  0  0  0  0  0  0  0  0  0  0  0
  -23.9150  -24.5150   -6.3480 H   0  0  0  0  0  0  0  0  0  0  0  0
  -24.7830  -25.4590   -7.9400 N   0  0  0  0  0  0  0  0  0  0  0  0
  -24.1910  -26.1920   -8.8960 C   0  0  0  0  0  0  0  0  0  0  0  0
  -24.9600  -26.8520  -10.0050 C   0  0  0  0  0  0  0  0  0  0  0  0
  -22.8110  -26.2680   -8.7190 C   0  0  0  0  0  0  0  0  0  0  0  0
  -21.7730  -26.8740   -9.4180 C   0  0  0  0  0  0  0  0  0  0  0  0
  -15.7880  -27.3200  -10.5750 O   0  0  0  0  0  0  0  0  0  0  0  0
  -14.5880  -27.4790   -9.7020 C   0  0  0  0  0  0  0  0  0  0  0  0
  -13.7140  -26.2280   -9.6670 C   0  0  1  0  0  0  0  0  0  0  0  0
  -14.3370  -25.1540  -10.5390 N   0  0  0  0  0  0  0  0  0  0  0  0
  -14.9630  -24.5510   -9.9930 H   0  0  0  0  0  0  0  0  0  0  0  0
  -13.6140  -24.5620  -10.9400 H   0  0  0  0  0  0  0  0  0  0  0  0
  -14.8540  -25.5780  -11.3000 H   0  0  0  0  0  0  0  0  0  0  0  0
  -13.4510  -25.6450   -8.2680 C   0  0  0  0  0  0  0  0  0  0  0  0
  -14.6630  -25.8920   -7.4070 C   0  0  0  0  0  0  0  0  0  0  0  0
  -15.7830  -25.0540   -7.5430 C   0  0  0  0  0  0  0  0  0  0  0  0
  -16.8820  -25.2350   -6.7130 C   0  0  0  0  0  0  0  0  0  0  0  0
  -16.8770  -26.2270   -5.7490 C   0  0  0  0  0  0  0  0  0  0  0  0
  -18.3810  -26.4630   -4.6400 Br  0  0  0  0  0  0  0  0  0  0  0  0
  -15.7600  -27.0450   -5.5920 C   0  0  0  0  0  0  0  0  0  0  0  0
  -14.6540  -26.8940   -6.4190 C   0  0  0  0  0  0  0  0  0  0  0  0
  1  2  2  0  0  0  0
  2  3  1  0  0  0  0
  3  7  1  0  0  0  0
  4  3  2  0  0  0  0
  5  6  2  0  0  0  0
  5  4  1  0  0  0  0
  6  1  1  0  0  0  0
  7  8  1  0  0  0  0
  8  9  2  0  0  0  0
 10 11  1  0  0  0  0
 10  9  1  0  0  0  0
 11 12  1  0  0  0  0
 13 11  1  0  0  0  0
 14 16  1  0  0  0  0
 14 13  2  0  0  0  0
 15 14  1  0  0  0  0
 16 10  2  0  0  0  0
 17  7  2  0  0  0  0
 17 16  1  0  0  0  0
 18  1  1  0  0  0  0
 18 19  1  0  0  0  0
 20 19  1  1  0  0  0
 20 25  1  0  0  0  0
 21 22  1  0  0  0  0
 21 20  1  0  0  0  0
 23 21  1  0  0  0  0
 24 21  1  0  0  0  0
 25 26  1  0  0  0  0
 26 32  1  0  0  0  0
 27 26  2  0  0  0  0
 27 28  1  0  0  0  0
 28 29  2  0  0  0  0
 29 31  1  0  0  0  0
 29 30  1  0  0  0  0
 32 31  2  0  0  0  0
M  END
>  <minimizedAffinity>
-8.28309631

$$$$

 OpenBabel12271914403D

 32 35  0  0  1  0  0  0  0  0999 V2000
  -14.3550  -25.9800  -10.8950 C   0  0  0  0  0  0  0  0  0  0  0  0
  -15.1860  -26.1600   -9.8370 C   0  0  0  0  0  0  0  0  0  0  0  0
  -14.6730  -26.0450   -8.4930 C   0  0  0  0  0  0  0  0  0  0  0  0
  -13.3250  -25.7750   -8.3660 C   0  0  0  0  0  0  0  0  0  0  0  0
  -12.4880  -25.6210   -9.3860 N   0  0  0  0  0  0  0  0  0  0  0  0
  -13.0340  -25.7300  -10.6400 C   0  0  0  0  0  0  0  0  0  0  0  0
  -15.5270  -26.2290   -7.3300 C   0  0  0  0  0  0  0  0  0  0  0  0
  -16.7670  -25.5770   -7.1930 C   0  0  0  0  0  0  0  0  0  0  0  0
  -17.5930  -25.7750   -6.0640 C   0  0  0  0  0  0  0  0  0  0  0  0
  -17.1080  -26.6420   -5.0690 C   0  0  0  0  0  0  0  0  0  0  0  0
  -17.6180  -27.0470   -3.8870 N   0  0  0  0  0  0  0  0  0  0  0  0
  -18.4960  -26.7880   -3.4710 H   0  0  0  0  0  0  0  0  0  0  0  0
  -16.8130  -27.9140   -3.1930 N   0  0  0  0  0  0  0  0  0  0  0  0
  -15.7520  -28.0370   -4.0070 C   0  0  0  0  0  0  0  0  0  0  0  0
  -14.5630  -28.8900   -3.6650 C   0  0  0  0  0  0  0  0  0  0  0  0
  -15.8900  -27.2800   -5.1680 C   0  0  0  0  0  0  0  0  0  0  0  0
  -15.1040  -27.0800   -6.2970 C   0  0  0  0  0  0  0  0  0  0  0  0
  -14.6120  -25.9270  -12.1910 O   0  0  0  0  0  0  0  0  0  0  0  0
  -15.2160  -26.8180  -13.2250 C   0  0  0  0  0  0  0  0  0  0  0  0
  -14.3620  -26.9200  -14.4860 C   0  0  1  0  0  0  0  0  0  0  0  0
  -14.4280  -28.3360  -15.0270 N   0  0  0  0  0  0  0  0  0  0  0  0
  -15.1860  -28.4350  -15.7120 H   0  0  0  0  0  0  0  0  0  0  0  0
  -13.5580  -28.5760  -15.4950 H   0  0  0  0  0  0  0  0  0  0  0  0
  -14.5680  -28.9930  -14.2690 H   0  0  0  0  0  0  0  0  0  0  0  0
  -14.7270  -25.9380  -15.6130 C   0  0  0  0  0  0  0  0  0  0  0  0
  -13.5110  -25.1150  -15.9490 C   0  0  0  0  0  0  0  0  0  0  0  0
  -13.3290  -24.6670  -17.2680 C   0  0  0  0  0  0  0  0  0  0  0  0
  -12.1820  -23.9580  -17.6020 C   0  0  0  0  0  0  0  0  0  0  0  0
  -11.2140  -23.7020  -16.6480 C   0  0  0  0  0  0  0  0  0  0  0  0
   -9.6690  -22.7300  -17.1180 Br  0  0  0  0  0  0  0  0  0  0  0  0
  -11.3760  -24.1650  -15.3440 C   0  0  0  0  0  0  0  0  0  0  0  0
  -12.5210  -24.8620  -14.9810 C   0  0  0  0  0  0  0  0  0  0  0  0
  1  6  2  0  0  0  0
  1  2  1  0  0  0  0
  2  3  2  0  0  0  0
  3  4  1  0  0  0  0
  3  7  1  0  0  0  0
  5  4  2  0  0  0  0
  6  5  1  0  0  0  0
  7  8  2  0  0  0  0
  7 17  1  0  0  0  0
  8  9  1  0  0  0  0
  9 10  2  0  0  0  0
 10 11  1  0  0  0  0
 11 12  1  0  0  0  0
 11 13  1  0  0  0  0
 14 15  1  0  0  0  0
 14 13  2  0  0  0  0
 16 10  1  0  0  0  0
 16 14  1  0  0  0  0
 17 16  2  0  0  0  0
 18  1  1  0  0  0  0
 19 18  1  0  0  0  0
 20 25  1  6  0  0  0
 20 19  1  0  0  0  0
 21 20  1  0  0  0  0
 21 24  1  0  0  0  0
 22 21  1  0  0  0  0
 23 21  1  0  0  0  0
 26 25  1  0  0  0  0
 26 32  2  0  0  0  0
 27 26  1  0  0  0  0
 28 27  2  0  0  0  0
 28 29  1  0  0  0  0
 29 31  2  0  0  0  0
 30 29  1  0  0  0  0
 31 32  1  0  0  0  0
M  END
>  <minimizedAffinity>
-8.26519775

$$$$

 OpenBabel12271914403D

 32 35  0  0  1  0  0  0  0  0999 V2000
  -16.9420  -27.7660  -12.1720 C   0  0  0  0  0  0  0  0  0  0  0  0
  -17.6430  -27.0830  -11.2300 C   0  0  0  0  0  0  0  0  0  0  0  0
  -18.6700  -27.7560  -10.4730 C   0  0  0  0  0  0  0  0  0  0  0  0
  -18.8980  -29.0820  -10.7800 C   0  0  0  0  0  0  0  0  0  0  0  0
  -18.2430  -29.7620  -11.7140 N   0  0  0  0  0  0  0  0  0  0  0  0
  -17.2700  -29.0760  -12.3940 C   0  0  0  0  0  0  0  0  0  0  0  0
  -19.4450  -27.0640   -9.4540 C   0  0  0  0  0  0  0  0  0  0  0  0
  -18.8840  -26.6460   -8.2320 C   0  0  0  0  0  0  0  0  0  0  0  0
  -19.6440  -25.9640   -7.2570 C   0  0  0  0  0  0  0  0  0  0  0  0
  -21.0000  -25.7370   -7.5560 C   0  0  0  0  0  0  0  0  0  0  0  0
  -21.9940  -25.1350   -6.8710 N   0  0  0  0  0  0  0  0  0  0  0  0
  -21.9500  -24.7090   -5.9600 H   0  0  0  0  0  0  0  0  0  0  0  0
  -23.2010  -25.1240   -7.5220 N   0  0  0  0  0  0  0  0  0  0  0  0
  -22.9160  -25.7610   -8.6690 C   0  0  0  0  0  0  0  0  0  0  0  0
  -23.9480  -26.0190   -9.7310 C   0  0  0  0  0  0  0  0  0  0  0  0
  -21.5800  -26.1500   -8.7360 C   0  0  0  0  0  0  0  0  0  0  0  0
  -20.8050  -26.8060   -9.6850 C   0  0  0  0  0  0  0  0  0  0  0  0
  -15.9000  -27.4020  -12.9000 O   0  0  0  0  0  0  0  0  0  0  0  0
  -15.0310  -26.1970  -13.0430 C   0  0  0  0  0  0  0  0  0  0  0  0
  -14.0900  -26.0040  -11.8570 C   0  0  1  0  0  0  0  0  0  0  0  0
  -12.7200  -25.5920  -12.3610 N   0  0  0  0  0  0  0  0  0  0  0  0
  -12.6330  -24.5700  -12.4060 H   0  0  0  0  0  0  0  0  0  0  0  0
  -11.9960  -25.9340  -11.7350 H   0  0  0  0  0  0  0  0  0  0  0  0
  -12.5530  -25.9860  -13.2800 H   0  0  0  0  0  0  0  0  0  0  0  0
  -14.5590  -24.9870  -10.8010 C   0  0  0  0  0  0  0  0  0  0  0  0
  -14.6950  -25.6950   -9.4780 C   0  0  0  0  0  0  0  0  0  0  0  0
  -15.4550  -25.0990   -8.4560 C   0  0  0  0  0  0  0  0  0  0  0  0
  -15.5370  -25.7140   -7.2130 C   0  0  0  0  0  0  0  0  0  0  0  0
  -14.8690  -26.9010   -6.9720 C   0  0  0  0  0  0  0  0  0  0  0  0
  -15.0020  -27.7240   -5.2830 Br  0  0  0  0  0  0  0  0  0  0  0  0
  -14.0940  -27.4840   -7.9720 C   0  0  0  0  0  0  0  0  0  0  0  0
  -14.0070  -26.8970   -9.2290 C   0  0  0  0  0  0  0  0  0  0  0  0
  1  2  1  0  0  0  0
  2  3  2  0  0  0  0
  3  7  1  0  0  0  0
  4  3  1  0  0  0  0
  5  4  2  0  0  0  0
  6  1  2  0  0  0  0
  6  5  1  0  0  0  0
  7  8  1  0  0  0  0
  8  9  2  0  0  0  0
 10  9  1  0  0  0  0
 10 11  1  0  0  0  0
 11 12  1  0  0  0  0
 13 11  1  0  0  0  0
 14 13  2  0  0  0  0
 15 14  1  0  0  0  0
 16 14  1  0  0  0  0
 16 10  2  0  0  0  0
 17  7  2  0  0  0  0
 17 16  1  0  0  0  0
 18  1  1  0  0  0  0
 19 18  1  0  0  0  0
 20 19  1  6  0  0  0
 20 25  1  0  0  0  0
 21 20  1  0  0  0  0
 21 23  1  0  0  0  0
 22 21  1  0  0  0  0
 24 21  1  0  0  0  0
 25 26  1  0  0  0  0
 26 32  2  0  0  0  0
 26 27  1  0  0  0  0
 27 28  2  0  0  0  0
 28 29  1  0  0  0  0
 29 30  1  0  0  0  0
 31 29  2  0  0  0  0
 32 31  1  0  0  0  0
M  END
>  <minimizedAffinity>
-8.09888935

$$$$

 OpenBabel12271914403D

 32 35  0  0  1  0  0  0  0  0999 V2000
  -22.1860  -25.7060   -7.3120 C   0  0  0  0  0  0  0  0  0  0  0  0
  -20.8550  -25.7870   -7.0600 C   0  0  0  0  0  0  0  0  0  0  0  0
  -19.9520  -26.2140   -8.1010 C   0  0  0  0  0  0  0  0  0  0  0  0
  -20.5190  -26.5460   -9.3150 C   0  0  0  0  0  0  0  0  0  0  0  0
  -21.8200  -26.5000   -9.5760 N   0  0  0  0  0  0  0  0  0  0  0  0
  -22.6300  -26.0760   -8.5530 C   0  0  0  0  0  0  0  0  0  0  0  0
  -18.5170  -26.3140   -7.8760 C   0  0  0  0  0  0  0  0  0  0  0  0
  -17.5730  -26.0020   -8.8720 C   0  0  0  0  0  0  0  0  0  0  0  0
  -16.1830  -26.0900   -8.6350 C   0  0  0  0  0  0  0  0  0  0  0  0
  -15.7850  -26.5260   -7.3590 C   0  0  0  0  0  0  0  0  0  0  0  0
  -14.5710  -26.7260   -6.8030 N   0  0  0  0  0  0  0  0  0  0  0  0
  -13.6680  -26.5920   -7.2240 H   0  0  0  0  0  0  0  0  0  0  0  0
  -14.6120  -27.1690   -5.5060 N   0  0  0  0  0  0  0  0  0  0  0  0
  -15.9310  -27.2430   -5.2660 C   0  0  0  0  0  0  0  0  0  0  0  0
  -16.4910  -27.7090   -3.9520 C   0  0  0  0  0  0  0  0  0  0  0  0
  -16.6870  -26.8550   -6.3700 C   0  0  0  0  0  0  0  0  0  0  0  0
  -18.0490  -26.7440   -6.6250 C   0  0  0  0  0  0  0  0  0  0  0  0
  -23.1760  -25.2450   -6.5670 O   0  0  0  0  0  0  0  0  0  0  0  0
  -24.5530  -25.6760   -6.1830 C   0  0  0  0  0  0  0  0  0  0  0  0
  -25.2530  -24.6720   -5.2720 C   0  0  1  0  0  0  0  0  0  0  0  0
  -26.3360  -23.9510   -6.0530 N   0  0  0  0  0  0  0  0  0  0  0  0
  -27.2370  -24.4340   -5.9660 H   0  0  0  0  0  0  0  0  0  0  0  0
  -26.4580  -23.0070   -5.6970 H   0  0  0  0  0  0  0  0  0  0  0  0
  -26.0780  -23.8880   -7.0300 H   0  0  0  0  0  0  0  0  0  0  0  0
  -25.8700  -25.2620   -3.9920 C   0  0  0  0  0  0  0  0  0  0  0  0
  -26.1860  -24.1330   -3.0450 C   0  0  0  0  0  0  0  0  0  0  0  0
  -25.2380  -23.1140   -2.8510 C   0  0  0  0  0  0  0  0  0  0  0  0
  -25.4950  -22.1010   -1.9350 C   0  0  0  0  0  0  0  0  0  0  0  0
  -26.6710  -22.0950   -1.2080 C   0  0  0  0  0  0  0  0  0  0  0  0
  -27.0060  -20.7070    0.0210 Br  0  0  0  0  0  0  0  0  0  0  0  0
  -27.6040  -23.1150   -1.3770 C   0  0  0  0  0  0  0  0  0  0  0  0
  -27.3790  -24.1320   -2.2970 C   0  0  0  0  0  0  0  0  0  0  0  0
  1  2  1  0  0  0  0
  1 18  1  0  0  0  0
  3  7  1  0  0  0  0
  3  2  2  0  0  0  0
  4  3  1  0  0  0  0
  5  4  2  0  0  0  0
  5  6  1  0  0  0  0
  6  1  2  0  0  0  0
  7 17  2  0  0  0  0
  8  9  2  0  0  0  0
  8  7  1  0  0  0  0
  9 10  1  0  0  0  0
 10 11  1  0  0  0  0
 10 16  2  0  0  0  0
 11 13  1  0  0  0  0
 12 11  1  0  0  0  0
 13 14  2  0  0  0  0
 14 15  1  0  0  0  0
 16 14  1  0  0  0  0
 17 16  1  0  0  0  0
 18 19  1  0  0  0  0
 20 19  1  6  0  0  0
 20 25  1  0  0  0  0
 21 22  1  0  0  0  0
 21 23  1  0  0  0  0
 21 20  1  0  0  0  0
 24 21  1  0  0  0  0
 25 26  1  0  0  0  0
 26 27  2  0  0  0  0
 26 32  1  0  0  0  0
 27 28  1  0  0  0  0
 28 29  2  0  0  0  0
 29 30  1  0  0  0  0
 31 29  1  0  0  0  0
 32 31  2  0  0  0  0
M  END
>  <minimizedAffinity>
-8.0066452

$$$$

 OpenBabel12271914403D

 32 35  0  0  1  0  0  0  0  0999 V2000
  -14.6530  -25.6850  -11.7120 C   0  0  0  0  0  0  0  0  0  0  0  0
  -15.2350  -25.9790  -10.5210 C   0  0  0  0  0  0  0  0  0  0  0  0
  -14.4320  -26.0270   -9.3230 C   0  0  0  0  0  0  0  0  0  0  0  0
  -13.0800  -25.7910   -9.4730 C   0  0  0  0  0  0  0  0  0  0  0  0
  -12.4860  -25.5280  -10.6320 N   0  0  0  0  0  0  0  0  0  0  0  0
  -13.3000  -25.4820  -11.7340 C   0  0  0  0  0  0  0  0  0  0  0  0
  -15.0130  -26.3370   -8.0250 C   0  0  0  0  0  0  0  0  0  0  0  0
  -14.2920  -26.9960   -7.0120 C   0  0  0  0  0  0  0  0  0  0  0  0
  -14.8640  -27.2780   -5.7520 C   0  0  0  0  0  0  0  0  0  0  0  0
  -16.2010  -26.8850   -5.5620 C   0  0  0  0  0  0  0  0  0  0  0  0
  -17.0410  -26.9970   -4.5120 N   0  0  0  0  0  0  0  0  0  0  0  0
  -16.8580  -27.4080   -3.6130 H   0  0  0  0  0  0  0  0  0  0  0  0
  -18.2930  -26.4810   -4.7350 N   0  0  0  0  0  0  0  0  0  0  0  0
  -18.2000  -26.0320   -5.9960 C   0  0  0  0  0  0  0  0  0  0  0  0
  -19.3510  -25.3830   -6.7130 C   0  0  0  0  0  0  0  0  0  0  0  0
  -16.9370  -26.2540   -6.5410 C   0  0  0  0  0  0  0  0  0  0  0  0
  -16.3440  -25.9750   -7.7670 C   0  0  0  0  0  0  0  0  0  0  0  0
  -15.1900  -25.4770  -12.9020 O   0  0  0  0  0  0  0  0  0  0  0  0
  -15.0640  -26.0480  -14.2760 C   0  0  0  0  0  0  0  0  0  0  0  0
  -16.3950  -26.0920  -15.0210 C   0  0  1  0  0  0  0  0  0  0  0  0
  -16.1780  -25.6840  -16.4660 N   0  0  0  0  0  0  0  0  0  0  0  0
  -15.9890  -26.5010  -17.0570 H   0  0  0  0  0  0  0  0  0  0  0  0
  -17.0080  -25.2260  -16.8310 H   0  0  0  0  0  0  0  0  0  0  0  0
  -15.4040  -25.0320  -16.5330 H   0  0  0  0  0  0  0  0  0  0  0  0
  -17.1240  -27.4460  -14.9900 C   0  0  0  0  0  0  0  0  0  0  0  0
  -17.5920  -27.7090  -13.5820 C   0  0  0  0  0  0  0  0  0  0  0  0
  -18.4710  -26.8000  -12.9690 C   0  0  0  0  0  0  0  0  0  0  0  0
  -18.8610  -27.0010  -11.6520 C   0  0  0  0  0  0  0  0  0  0  0  0
  -18.3820  -28.0850  -10.9360 C   0  0  0  0  0  0  0  0  0  0  0  0
  -18.9320  -28.3460   -9.1530 Br  0  0  0  0  0  0  0  0  0  0  0  0
  -17.4920  -28.9760  -11.5290 C   0  0  0  0  0  0  0  0  0  0  0  0
  -17.0980  -28.8060  -12.8500 C   0  0  0  0  0  0  0  0  0  0  0  0
  1  2  1  0  0  0  0
  2  3  2  0  0  0  0
  3  7  1  0  0  0  0
  4  3  1  0  0  0  0
  5  4  2  0  0  0  0
  6  1  2  0  0  0  0
  6  5  1  0  0  0  0
  7 17  2  0  0  0  0
  7  8  1  0  0  0  0
  8  9  2  0  0  0  0
  9 10  1  0  0  0  0
 10 11  1  0  0  0  0
 11 12  1  0  0  0  0
 13 11  1  0  0  0  0
 14 13  2  0  0  0  0
 15 14  1  0  0  0  0
 16 14  1  0  0  0  0
 16 10  2  0  0  0  0
 17 16  1  0  0  0  0
 18  1  1  0  0  0  0
 19 18  1  0  0  0  0
 20 25  1  6  0  0  0
 20 19  1  0  0  0  0
 21 20  1  0  0  0  0
 22 21  1  0  0  0  0
 23 21  1  0  0  0  0
 24 21  1  0  0  0  0
 25 26  1  0  0  0  0
 26 27  2  0  0  0  0
 26 32  1  0  0  0  0
 27 28  1  0  0  0  0
 28 29  2  0  0  0  0
 29 30  1  0  0  0  0
 31 29  1  0  0  0  0
 32 31  2  0  0  0  0
M  END
>  <minimizedAffinity>
-7.97112989

$$$$

 OpenBabel12271914403D

 32 35  0  0  1  0  0  0  0  0999 V2000
  -24.8410  -25.3340   -6.2500 C   0  0  0  0  0  0  0  0  0  0  0  0
  -25.2420  -24.5550   -5.2130 C   0  0  0  0  0  0  0  0  0  0  0  0
  -25.5710  -25.1610   -3.9460 C   0  0  0  0  0  0  0  0  0  0  0  0
  -25.4770  -26.5370   -3.8740 C   0  0  0  0  0  0  0  0  0  0  0  0
  -25.1120  -27.3200   -4.8820 N   0  0  0  0  0  0  0  0  0  0  0  0
  -24.8000  -26.6890   -6.0590 C   0  0  0  0  0  0  0  0  0  0  0  0
  -26.0040  -24.3650   -2.8070 C   0  0  0  0  0  0  0  0  0  0  0  0
  -25.1410  -23.4830   -2.1310 C   0  0  0  0  0  0  0  0  0  0  0  0
  -25.5780  -22.7060   -1.0350 C   0  0  0  0  0  0  0  0  0  0  0  0
  -26.9170  -22.8710   -0.6360 C   0  0  0  0  0  0  0  0  0  0  0  0
  -27.6500  -22.3080    0.3480 N   0  0  0  0  0  0  0  0  0  0  0  0
  -27.3570  -21.6220    1.0220 H   0  0  0  0  0  0  0  0  0  0  0  0
  -28.9460  -22.7520    0.4090 N   0  0  0  0  0  0  0  0  0  0  0  0
  -28.9970  -23.6380   -0.5980 C   0  0  0  0  0  0  0  0  0  0  0  0
  -30.2360  -24.4220   -0.9270 C   0  0  0  0  0  0  0  0  0  0  0  0
  -27.7790  -23.7410   -1.2680 C   0  0  0  0  0  0  0  0  0  0  0  0
  -27.3270  -24.4820   -2.3540 C   0  0  0  0  0  0  0  0  0  0  0  0
  -24.3900  -25.0040   -7.4480 O   0  0  0  0  0  0  0  0  0  0  0  0
  -23.4280  -25.5570   -8.4480 C   0  0  0  0  0  0  0  0  0  0  0  0
  -21.9830  -25.1650   -8.1550 C   0  0  1  0  0  0  0  0  0  0  0  0
  -21.9290  -23.7060   -7.7410 N   0  0  0  0  0  0  0  0  0  0  0  0
  -22.0060  -23.6080   -6.7230 H   0  0  0  0  0  0  0  0  0  0  0  0
  -21.0460  -23.2910   -8.0240 H   0  0  0  0  0  0  0  0  0  0  0  0
  -22.6770  -23.1880   -8.1890 H   0  0  0  0  0  0  0  0  0  0  0  0
  -21.2720  -26.0130   -7.0870 C   0  0  0  0  0  0  0  0  0  0  0  0
  -19.7830  -25.8940   -7.2880 C   0  0  0  0  0  0  0  0  0  0  0  0
  -19.0080  -25.2530   -6.3070 C   0  0  0  0  0  0  0  0  0  0  0  0
  -17.6440  -25.0850   -6.5100 C   0  0  0  0  0  0  0  0  0  0  0  0
  -17.0480  -25.5340   -7.6750 C   0  0  0  0  0  0  0  0  0  0  0  0
  -15.1950  -25.3060   -7.9270 Br  0  0  0  0  0  0  0  0  0  0  0  0
  -17.8150  -26.1480   -8.6620 C   0  0  0  0  0  0  0  0  0  0  0  0
  -19.1780  -26.3420   -8.4770 C   0  0  0  0  0  0  0  0  0  0  0  0
  1  6  2  0  0  0  0
  1  2  1  0  0  0  0
  2  3  2  0  0  0  0
  3  4  1  0  0  0  0
  3  7  1  0  0  0  0
  5  4  2  0  0  0  0
  6  5  1  0  0  0  0
  7 17  2  0  0  0  0
  7  8  1  0  0  0  0
  8  9  2  0  0  0  0
  9 10  1  0  0  0  0
 10 11  1  0  0  0  0
 11 13  1  0  0  0  0
 11 12  1  0  0  0  0
 14 13  2  0  0  0  0
 15 14  1  0  0  0  0
 16 10  2  0  0  0  0
 16 14  1  0  0  0  0
 17 16  1  0  0  0  0
 18  1  1  0  0  0  0
 19 18  1  0  0  0  0
 20 19  1  1  0  0  0
 20 21  1  0  0  0  0
 20 25  1  0  0  0  0
 21 22  1  0  0  0  0
 23 21  1  0  0  0  0
 24 21  1  0  0  0  0
 26 25  1  0  0  0  0
 26 27  2  0  0  0  0
 28 27  1  0  0  0  0
 29 28  2  0  0  0  0
 30 29  1  0  0  0  0
 31 32  2  0  0  0  0
 31 29  1  0  0  0  0
 32 26  1  0  0  0  0
M  END
>  <minimizedAffinity>
-7.890347

$$$$
