
 OpenBabel12271914523D

 37 41  0  0  1  0  0  0  0  0999 V2000
  -16.1140  -25.9110  -10.4010 C   0  0  2  0  0  0  0  0  0  0  0  0
  -16.7760  -24.9930  -11.3230 O   0  0  0  0  0  0  0  0  0  0  0  0
  -16.9380  -25.3310  -12.6300 C   0  0  0  0  0  0  0  0  0  0  0  0
  -17.8700  -24.8770  -13.2600 O   0  0  0  0  0  0  0  0  0  0  0  0
  -15.9460  -26.2590  -13.1850 C   0  0  1  0  0  0  0  0  0  0  0  0
  -14.9010  -26.7730  -12.4820 C   0  0  0  0  0  0  0  0  0  0  0  0
  -14.0620  -27.5790  -12.8700 O   0  0  0  0  0  0  0  0  0  0  0  0
  -14.7800  -26.3120  -10.9750 C   0  0  0  0  0  0  0  0  0  0  0  0
  -17.0490  -27.0970  -10.2740 C   0  0  0  0  0  0  0  0  0  0  0  0
  -18.3840  -26.7220   -9.6380 C   0  0  0  0  0  0  0  0  0  0  0  0
  -18.9420  -28.1010   -9.3810 C   0  0  0  0  0  0  0  0  0  0  0  0
  -17.7760  -28.7780   -8.6740 C   0  0  0  0  0  0  0  0  0  0  0  0
  -16.5830  -28.3370   -9.5120 C   0  0  0  0  0  0  0  0  0  0  0  0
  -16.0440  -26.7300  -14.6290 C   0  0  0  0  0  0  0  0  0  0  0  0
  -17.1430  -27.7740  -14.8480 C   0  0  0  0  0  0  0  0  0  0  0  0
  -17.5300  -28.2900  -16.0570 N   0  0  0  0  0  0  0  0  0  0  0  0
  -18.5040  -29.1750  -15.7430 C   0  0  0  0  0  0  0  0  0  0  0  0
  -19.2740  -30.0180  -16.5450 N   0  0  0  0  0  0  0  0  0  0  0  0
  -20.1490  -30.8010  -16.0200 C   0  0  0  0  0  0  0  0  0  0  0  0
  -21.0180  -31.7430  -16.8540 C   0  0  0  0  0  0  0  0  0  0  0  0
  -20.3840  -30.8300  -14.5610 C   0  0  0  0  0  0  0  0  0  0  0  0
  -19.6390  -30.0210  -13.8060 C   0  0  0  0  0  0  0  0  0  0  0  0
  -19.8150  -29.9840  -12.3290 C   0  0  0  0  0  0  0  0  0  0  0  0
  -18.6770  -29.1740  -14.4170 N   0  0  0  0  0  0  0  0  0  0  0  0
  -17.8130  -28.2980  -13.8430 N   0  0  0  0  0  0  0  0  0  0  0  0
  -15.9440  -25.0830   -9.1080 C   0  0  0  0  0  0  0  0  0  0  0  0
  -14.7990  -25.4410   -8.1660 C   0  0  0  0  0  0  0  0  0  0  0  0
  -17.2240  -26.4660   -5.4870 C   0  0  0  0  0  0  0  0  0  0  0  0
  -16.5080  -27.3370   -4.7520 N   0  0  0  0  0  0  0  0  0  0  0  0
  -15.2150  -27.6010   -5.1330 C   0  0  0  0  0  0  0  0  0  0  0  0
  -14.6470  -27.0170   -6.2070 C   0  0  0  0  0  0  0  0  0  0  0  0
  -15.3770  -26.1150   -6.9730 C   0  0  0  0  0  0  0  0  0  0  0  0
  -16.6970  -25.8380   -6.5730 C   0  0  0  0  0  0  0  0  0  0  0  0
  -19.4180  -25.7720   -6.3180 C   0  0  0  0  0  0  0  0  0  0  0  0
  -18.6420  -26.1410   -5.0670 C   0  0  0  0  0  0  0  0  0  0  0  0
  -14.4220  -28.5960   -4.2970 C   0  0  0  0  0  0  0  0  0  0  0  0
  -15.0210  -28.6900   -2.9150 C   0  0  0  0  0  0  0  0  0  0  0  0
  1  9  1  0  0  0  0
  1 26  1  1  0  0  0
  2  1  1  0  0  0  0
  3  2  1  0  0  0  0
  4  3  2  0  0  0  0
  5 14  1  1  0  0  0
  5  3  1  0  0  0  0
  5  6  1  0  0  0  0
  6  8  1  0  0  0  0
  7  6  2  0  0  0  0
  8  1  1  0  0  0  0
  9 10  1  0  0  0  0
  9 13  1  0  0  0  0
 10 11  1  0  0  0  0
 11 12  1  0  0  0  0
 13 12  1  0  0  0  0
 15 14  1  0  0  0  0
 15 25  2  0  0  0  0
 16 17  2  0  0  0  0
 16 15  2  0  0  0  0
 17 24  1  0  0  0  0
 18 19  2  0  0  0  0
 18 17  2  0  0  0  0
 19 21  1  0  0  0  0
 20 19  1  0  0  0  0
 21 22  2  0  0  0  0
 22 23  1  0  0  0  0
 24 25  1  0  0  0  0
 24 22  1  0  0  0  0
 26 27  1  0  0  0  0
 27 32  1  0  0  0  0
 28 35  1  0  0  0  0
 28 29  2  0  0  0  0
 30 29  2  0  0  0  0
 30 36  1  0  0  0  0
 31 30  1  0  0  0  0
 32 33  1  0  0  0  0
 32 31  2  0  0  0  0
 33 28  1  0  0  0  0
 34 35  1  0  0  0  0
 36 37  1  0  0  0  0
M  END
>  <minimizedAffinity>
-9.13762665

$$$$

 OpenBabel12271914523D

 37 41  0  0  1  0  0  0  0  0999 V2000
  -16.1920  -25.9770  -10.4390 C   0  0  2  0  0  0  0  0  0  0  0  0
  -16.8300  -25.0530  -11.3710 O   0  0  0  0  0  0  0  0  0  0  0  0
  -16.9770  -25.3900  -12.6800 C   0  0  0  0  0  0  0  0  0  0  0  0
  -17.8950  -24.9270  -13.3230 O   0  0  0  0  0  0  0  0  0  0  0  0
  -15.9870  -26.3300  -13.2200 C   0  0  1  0  0  0  0  0  0  0  0  0
  -14.9580  -26.8540  -12.5020 C   0  0  0  0  0  0  0  0  0  0  0  0
  -14.1230  -27.6690  -12.8770 O   0  0  0  0  0  0  0  0  0  0  0  0
  -14.8540  -26.3930  -10.9940 C   0  0  0  0  0  0  0  0  0  0  0  0
  -17.1410  -27.1530  -10.3250 C   0  0  0  0  0  0  0  0  0  0  0  0
  -18.5030  -26.7510   -9.7660 C   0  0  0  0  0  0  0  0  0  0  0  0
  -19.0840  -28.1190   -9.4980 C   0  0  0  0  0  0  0  0  0  0  0  0
  -17.9600  -28.7830   -8.7150 C   0  0  0  0  0  0  0  0  0  0  0  0
  -16.7230  -28.3730   -9.5050 C   0  0  0  0  0  0  0  0  0  0  0  0
  -16.0700  -26.8010  -14.6640 C   0  0  0  0  0  0  0  0  0  0  0  0
  -15.2190  -25.9610  -15.6220 C   0  0  0  0  0  0  0  0  0  0  0  0
  -15.6330  -25.4460  -16.8220 N   0  0  0  0  0  0  0  0  0  0  0  0
  -14.5550  -24.7730  -17.2840 C   0  0  0  0  0  0  0  0  0  0  0  0
  -14.3620  -24.0330  -18.4510 N   0  0  0  0  0  0  0  0  0  0  0  0
  -13.2360  -23.4560  -18.6830 C   0  0  0  0  0  0  0  0  0  0  0  0
  -12.9750  -22.6340  -19.9450 C   0  0  0  0  0  0  0  0  0  0  0  0
  -12.1040  -23.5630  -17.7370 C   0  0  0  0  0  0  0  0  0  0  0  0
  -12.3030  -24.2710  -16.6250 C   0  0  0  0  0  0  0  0  0  0  0  0
  -11.2140  -24.4350  -15.6240 C   0  0  0  0  0  0  0  0  0  0  0  0
  -13.5600  -24.8900  -16.3970 N   0  0  0  0  0  0  0  0  0  0  0  0
  -13.9760  -25.6320  -15.3390 N   0  0  0  0  0  0  0  0  0  0  0  0
  -16.0310  -25.1500   -9.1440 C   0  0  0  0  0  0  0  0  0  0  0  0
  -14.8720  -25.4840   -8.2120 C   0  0  0  0  0  0  0  0  0  0  0  0
  -17.2650  -26.5160   -5.5080 C   0  0  0  0  0  0  0  0  0  0  0  0
  -16.5220  -27.3410   -4.7480 N   0  0  0  0  0  0  0  0  0  0  0  0
  -15.2200  -27.5720   -5.1190 C   0  0  0  0  0  0  0  0  0  0  0  0
  -14.6700  -26.9980   -6.2090 C   0  0  0  0  0  0  0  0  0  0  0  0
  -15.4290  -26.1440   -7.0000 C   0  0  0  0  0  0  0  0  0  0  0  0
  -16.7590  -25.9000   -6.6100 C   0  0  0  0  0  0  0  0  0  0  0  0
  -19.4580  -25.8260   -6.3480 C   0  0  0  0  0  0  0  0  0  0  0  0
  -18.6950  -26.2270   -5.0980 C   0  0  0  0  0  0  0  0  0  0  0  0
  -14.3960  -28.5150   -4.2550 C   0  0  0  0  0  0  0  0  0  0  0  0
  -15.0670  -28.6950   -2.9160 C   0  0  0  0  0  0  0  0  0  0  0  0
  1  9  1  0  0  0  0
  1 26  1  1  0  0  0
  2  1  1  0  0  0  0
  3  2  1  0  0  0  0
  4  3  2  0  0  0  0
  5 14  1  1  0  0  0
  5  3  1  0  0  0  0
  5  6  1  0  0  0  0
  6  8  1  0  0  0  0
  7  6  2  0  0  0  0
  8  1  1  0  0  0  0
  9 10  1  0  0  0  0
  9 13  1  0  0  0  0
 10 11  1  0  0  0  0
 11 12  1  0  0  0  0
 13 12  1  0  0  0  0
 15 25  2  0  0  0  0
 15 14  1  0  0  0  0
 16 15  2  0  0  0  0
 17 16  2  0  0  0  0
 17 24  1  0  0  0  0
 18 17  2  0  0  0  0
 19 18  2  0  0  0  0
 19 21  1  0  0  0  0
 20 19  1  0  0  0  0
 21 22  2  0  0  0  0
 22 24  1  0  0  0  0
 22 23  1  0  0  0  0
 24 25  1  0  0  0  0
 26 27  1  0  0  0  0
 27 32  1  0  0  0  0
 28 35  1  0  0  0  0
 28 29  2  0  0  0  0
 30 29  2  0  0  0  0
 30 36  1  0  0  0  0
 31 30  1  0  0  0  0
 32 33  1  0  0  0  0
 32 31  2  0  0  0  0
 33 28  1  0  0  0  0
 34 35  1  0  0  0  0
 36 37  1  0  0  0  0
M  END
>  <minimizedAffinity>
-9.07833099

$$$$

 OpenBabel12271914523D

 37 41  0  0  1  0  0  0  0  0999 V2000
  -16.1370  -25.9370  -10.5130 C   0  0  2  0  0  0  0  0  0  0  0  0
  -16.8270  -25.0860  -11.4760 O   0  0  0  0  0  0  0  0  0  0  0  0
  -16.9500  -25.4770  -12.7730 C   0  0  0  0  0  0  0  0  0  0  0  0
  -17.8920  -25.0910  -13.4320 O   0  0  0  0  0  0  0  0  0  0  0  0
  -15.9060  -26.3750  -13.2790 C   0  0  1  0  0  0  0  0  0  0  0  0
  -14.8500  -26.8130  -12.5430 C   0  0  0  0  0  0  0  0  0  0  0  0
  -13.9670  -27.5900  -12.8890 O   0  0  0  0  0  0  0  0  0  0  0  0
  -14.7770  -26.2940  -11.0520 C   0  0  0  0  0  0  0  0  0  0  0  0
  -17.0160  -27.1620  -10.3570 C   0  0  0  0  0  0  0  0  0  0  0  0
  -18.3980  -26.8230   -9.8070 C   0  0  0  0  0  0  0  0  0  0  0  0
  -18.8980  -28.2120   -9.4930 C   0  0  0  0  0  0  0  0  0  0  0  0
  -17.7360  -28.7840   -8.6930 C   0  0  0  0  0  0  0  0  0  0  0  0
  -16.5260  -28.3290   -9.4990 C   0  0  0  0  0  0  0  0  0  0  0  0
  -15.9570  -26.9010  -14.7060 C   0  0  0  0  0  0  0  0  0  0  0  0
  -15.2530  -25.9850  -15.7110 C   0  0  0  0  0  0  0  0  0  0  0  0
  -13.9040  -25.7550  -15.7800 N   0  0  0  0  0  0  0  0  0  0  0  0
  -13.7650  -24.9070  -16.8240 C   0  0  0  0  0  0  0  0  0  0  0  0
  -12.6310  -24.3230  -17.3900 N   0  0  0  0  0  0  0  0  0  0  0  0
  -12.7350  -23.5420  -18.4070 C   0  0  0  0  0  0  0  0  0  0  0  0
  -11.5250  -22.8780  -19.0640 C   0  0  0  0  0  0  0  0  0  0  0  0
  -14.0490  -23.2250  -19.0070 C   0  0  0  0  0  0  0  0  0  0  0  0
  -15.1230  -23.7920  -18.4580 C   0  0  0  0  0  0  0  0  0  0  0  0
  -16.4840  -23.5210  -18.9950 C   0  0  0  0  0  0  0  0  0  0  0  0
  -14.9730  -24.6530  -17.3390 N   0  0  0  0  0  0  0  0  0  0  0  0
  -15.9180  -25.3400  -16.6470 N   0  0  0  0  0  0  0  0  0  0  0  0
  -16.0280  -25.0570   -9.2470 C   0  0  0  0  0  0  0  0  0  0  0  0
  -14.9100  -25.3530   -8.2550 C   0  0  0  0  0  0  0  0  0  0  0  0
  -15.3080  -27.4920   -5.1930 C   0  0  0  0  0  0  0  0  0  0  0  0
  -16.5820  -27.2590   -4.8280 N   0  0  0  0  0  0  0  0  0  0  0  0
  -17.3270  -26.3880   -5.5850 C   0  0  0  0  0  0  0  0  0  0  0  0
  -16.8260  -25.7710   -6.6740 C   0  0  0  0  0  0  0  0  0  0  0  0
  -15.5120  -26.0060   -7.0610 C   0  0  0  0  0  0  0  0  0  0  0  0
  -14.7550  -26.9070   -6.2900 C   0  0  0  0  0  0  0  0  0  0  0  0
  -15.1610  -28.6520   -3.0430 C   0  0  0  0  0  0  0  0  0  0  0  0
  -14.4790  -28.4700   -4.3870 C   0  0  0  0  0  0  0  0  0  0  0  0
  -18.7630  -26.1270   -5.1540 C   0  0  0  0  0  0  0  0  0  0  0  0
  -19.6340  -25.9380   -6.3720 C   0  0  0  0  0  0  0  0  0  0  0  0
  1  9  1  0  0  0  0
  1 26  1  1  0  0  0
  2  1  1  0  0  0  0
  3  2  1  0  0  0  0
  4  3  2  0  0  0  0
  5 14  1  1  0  0  0
  5  3  1  0  0  0  0
  5  6  1  0  0  0  0
  6  8  1  0  0  0  0
  7  6  2  0  0  0  0
  8  1  1  0  0  0  0
  9 10  1  0  0  0  0
  9 13  1  0  0  0  0
 10 11  1  0  0  0  0
 11 12  1  0  0  0  0
 13 12  1  0  0  0  0
 15 14  1  0  0  0  0
 16 15  2  0  0  0  0
 17 16  2  0  0  0  0
 18 17  2  0  0  0  0
 19 18  2  0  0  0  0
 20 19  1  0  0  0  0
 21 22  2  0  0  0  0
 21 19  1  0  0  0  0
 22 24  1  0  0  0  0
 23 22  1  0  0  0  0
 24 17  1  0  0  0  0
 24 25  1  0  0  0  0
 25 15  2  0  0  0  0
 26 27  1  0  0  0  0
 27 32  1  0  0  0  0
 28 29  2  0  0  0  0
 28 35  1  0  0  0  0
 30 36  1  0  0  0  0
 30 29  2  0  0  0  0
 31 30  1  0  0  0  0
 32 31  2  0  0  0  0
 32 33  1  0  0  0  0
 33 28  1  0  0  0  0
 35 34  1  0  0  0  0
 37 36  1  0  0  0  0
M  END
>  <minimizedAffinity>
-9.0150032

$$$$

 OpenBabel12271914523D

 37 41  0  0  1  0  0  0  0  0999 V2000
  -16.1450  -26.5410  -10.3520 C   0  0  2  0  0  0  0  0  0  0  0  0
  -16.3390  -27.8400   -9.7180 O   0  0  0  0  0  0  0  0  0  0  0  0
  -17.3770  -28.6380  -10.0900 C   0  0  0  0  0  0  0  0  0  0  0  0
  -17.2800  -29.8420   -9.9840 O   0  0  0  0  0  0  0  0  0  0  0  0
  -18.5610  -27.9520  -10.6200 C   0  0  1  0  0  0  0  0  0  0  0  0
  -18.6720  -26.6020  -10.7430 C   0  0  0  0  0  0  0  0  0  0  0  0
  -19.6120  -25.9690  -11.2110 O   0  0  0  0  0  0  0  0  0  0  0  0
  -17.4260  -25.7530  -10.2700 C   0  0  0  0  0  0  0  0  0  0  0  0
  -15.7670  -26.8460  -11.7880 C   0  0  0  0  0  0  0  0  0  0  0  0
  -14.2910  -27.2040  -11.9390 C   0  0  0  0  0  0  0  0  0  0  0  0
  -14.1680  -27.1550  -13.4430 C   0  0  0  0  0  0  0  0  0  0  0  0
  -14.7940  -25.8040  -13.7590 C   0  0  0  0  0  0  0  0  0  0  0  0
  -16.0310  -25.7990  -12.8690 C   0  0  0  0  0  0  0  0  0  0  0  0
  -19.7700  -28.7440  -11.0950 C   0  0  0  0  0  0  0  0  0  0  0  0
  -19.6040  -29.3060  -12.5100 C   0  0  0  0  0  0  0  0  0  0  0  0
  -18.4220  -29.4270  -13.1920 N   0  0  0  0  0  0  0  0  0  0  0  0
  -18.7770  -29.9850  -14.3720 C   0  0  0  0  0  0  0  0  0  0  0  0
  -18.0140  -30.3600  -15.4790 N   0  0  0  0  0  0  0  0  0  0  0  0
  -18.5700  -30.8950  -16.5080 C   0  0  0  0  0  0  0  0  0  0  0  0
  -17.7800  -31.3230  -17.7440 C   0  0  0  0  0  0  0  0  0  0  0  0
  -20.0300  -31.1220  -16.5660 C   0  0  0  0  0  0  0  0  0  0  0  0
  -20.7470  -30.7610  -15.5000 C   0  0  0  0  0  0  0  0  0  0  0  0
  -22.2230  -30.9480  -15.4790 C   0  0  0  0  0  0  0  0  0  0  0  0
  -20.1000  -30.1790  -14.3790 N   0  0  0  0  0  0  0  0  0  0  0  0
  -20.6290  -29.7610  -13.2000 N   0  0  0  0  0  0  0  0  0  0  0  0
  -15.0240  -25.8810   -9.5170 C   0  0  0  0  0  0  0  0  0  0  0  0
  -15.4220  -24.9030   -8.4180 C   0  0  0  0  0  0  0  0  0  0  0  0
  -17.5990  -26.2980   -5.6940 C   0  0  0  0  0  0  0  0  0  0  0  0
  -16.7670  -27.1310   -5.0420 N   0  0  0  0  0  0  0  0  0  0  0  0
  -15.4760  -27.2460   -5.4940 C   0  0  0  0  0  0  0  0  0  0  0  0
  -15.0210  -26.5540   -6.5580 C   0  0  0  0  0  0  0  0  0  0  0  0
  -15.8720  -25.6910   -7.2390 C   0  0  0  0  0  0  0  0  0  0  0  0
  -17.1910  -25.5660   -6.7660 C   0  0  0  0  0  0  0  0  0  0  0  0
  -19.8910  -25.7910   -6.3870 C   0  0  0  0  0  0  0  0  0  0  0  0
  -19.0200  -26.1360   -5.1940 C   0  0  0  0  0  0  0  0  0  0  0  0
  -14.5500  -28.1990   -4.7520 C   0  0  0  0  0  0  0  0  0  0  0  0
  -15.1480  -28.5470   -3.4110 C   0  0  0  0  0  0  0  0  0  0  0  0
  1  8  1  0  0  0  0
  1  2  1  0  0  0  0
  1 26  1  1  0  0  0
  3  4  2  0  0  0  0
  3  2  1  0  0  0  0
  5 14  1  6  0  0  0
  5  3  1  0  0  0  0
  6  5  1  0  0  0  0
  6  8  1  0  0  0  0
  7  6  2  0  0  0  0
  9  1  1  0  0  0  0
 10  9  1  0  0  0  0
 11 10  1  0  0  0  0
 12 11  1  0  0  0  0
 12 13  1  0  0  0  0
 13  9  1  0  0  0  0
 15 14  1  0  0  0  0
 16 15  2  0  0  0  0
 17 16  2  0  0  0  0
 18 17  2  0  0  0  0
 19 18  2  0  0  0  0
 20 19  1  0  0  0  0
 21 19  1  0  0  0  0
 21 22  2  0  0  0  0
 22 23  1  0  0  0  0
 22 24  1  0  0  0  0
 24 17  1  0  0  0  0
 24 25  1  0  0  0  0
 25 15  2  0  0  0  0
 26 27  1  0  0  0  0
 27 32  1  0  0  0  0
 28 35  1  0  0  0  0
 28 29  2  0  0  0  0
 30 29  2  0  0  0  0
 30 36  1  0  0  0  0
 31 30  1  0  0  0  0
 32 33  1  0  0  0  0
 32 31  2  0  0  0  0
 33 28  1  0  0  0  0
 34 35  1  0  0  0  0
 36 37  1  0  0  0  0
M  END
>  <minimizedAffinity>
-8.73478031

$$$$

 OpenBabel12271914523D

 37 41  0  0  1  0  0  0  0  0999 V2000
  -19.8260  -26.9790  -10.1540 C   0  0  2  0  0  0  0  0  0  0  0  0
  -20.4140  -25.7270  -10.6180 O   0  0  0  0  0  0  0  0  0  0  0  0
  -21.7230  -25.4500  -10.3760 C   0  0  0  0  0  0  0  0  0  0  0  0
  -22.0890  -24.2980  -10.2790 O   0  0  0  0  0  0  0  0  0  0  0  0
  -22.6110  -26.6090  -10.2310 C   0  0  1  0  0  0  0  0  0  0  0  0
  -22.2050  -27.9030  -10.3350 C   0  0  0  0  0  0  0  0  0  0  0  0
  -22.8830  -28.9140  -10.1880 O   0  0  0  0  0  0  0  0  0  0  0  0
  -20.6700  -28.1300  -10.6360 C   0  0  0  0  0  0  0  0  0  0  0  0
  -19.8210  -26.8840   -8.6410 C   0  0  0  0  0  0  0  0  0  0  0  0
  -19.7850  -25.4410   -8.1470 C   0  0  0  0  0  0  0  0  0  0  0  0
  -19.4910  -25.6770   -6.6850 C   0  0  0  0  0  0  0  0  0  0  0  0
  -18.3000  -26.6230   -6.7600 C   0  0  0  0  0  0  0  0  0  0  0  0
  -18.7240  -27.5980   -7.8520 C   0  0  0  0  0  0  0  0  0  0  0  0
  -24.0910  -26.4220   -9.9280 C   0  0  0  0  0  0  0  0  0  0  0  0
  -24.3800  -26.2200   -8.4380 C   0  0  0  0  0  0  0  0  0  0  0  0
  -24.5410  -25.0150   -7.8070 N   0  0  0  0  0  0  0  0  0  0  0  0
  -24.7940  -25.3460   -6.5200 C   0  0  0  0  0  0  0  0  0  0  0  0
  -25.0540  -24.5540   -5.4010 N   0  0  0  0  0  0  0  0  0  0  0  0
  -25.2840  -25.0940   -4.2560 C   0  0  0  0  0  0  0  0  0  0  0  0
  -25.5740  -24.2720   -3.0000 C   0  0  0  0  0  0  0  0  0  0  0  0
  -25.2720  -26.5610   -4.0770 C   0  0  0  0  0  0  0  0  0  0  0  0
  -25.0250  -27.3060   -5.1560 C   0  0  0  0  0  0  0  0  0  0  0  0
  -24.9880  -28.7900   -5.0620 C   0  0  0  0  0  0  0  0  0  0  0  0
  -24.7810  -26.6780   -6.4050 N   0  0  0  0  0  0  0  0  0  0  0  0
  -24.5290  -27.2390   -7.6160 N   0  0  0  0  0  0  0  0  0  0  0  0
  -18.4240  -26.9980  -10.8030 C   0  0  0  0  0  0  0  0  0  0  0  0
  -17.8150  -25.6730  -11.2470 C   0  0  0  0  0  0  0  0  0  0  0  0
  -14.0620  -25.5200  -11.2240 C   0  0  0  0  0  0  0  0  0  0  0  0
  -13.7700  -25.5390   -9.9110 N   0  0  0  0  0  0  0  0  0  0  0  0
  -14.8070  -25.5990   -9.0140 C   0  0  0  0  0  0  0  0  0  0  0  0
  -16.0960  -25.6440   -9.4060 C   0  0  0  0  0  0  0  0  0  0  0  0
  -16.4100  -25.6250  -10.7600 C   0  0  0  0  0  0  0  0  0  0  0  0
  -15.3440  -25.5750  -11.6770 C   0  0  0  0  0  0  0  0  0  0  0  0
  -13.4770  -25.9770  -13.5560 C   0  0  0  0  0  0  0  0  0  0  0  0
  -12.9300  -25.4810  -12.2300 C   0  0  0  0  0  0  0  0  0  0  0  0
  -14.4600  -25.6110   -7.5320 C   0  0  0  0  0  0  0  0  0  0  0  0
  -14.6610  -26.9980   -6.9730 C   0  0  0  0  0  0  0  0  0  0  0  0
  1 26  1  6  0  0  0
  1  9  1  0  0  0  0
  2  3  1  0  0  0  0
  2  1  1  0  0  0  0
  3  4  2  0  0  0  0
  3  5  1  0  0  0  0
  5 14  1  1  0  0  0
  6  5  1  0  0  0  0
  6  7  2  0  0  0  0
  8  6  1  0  0  0  0
  8  1  1  0  0  0  0
  9 10  1  0  0  0  0
  9 13  1  0  0  0  0
 10 11  1  0  0  0  0
 12 11  1  0  0  0  0
 13 12  1  0  0  0  0
 14 15  1  0  0  0  0
 15 16  2  0  0  0  0
 15 25  2  0  0  0  0
 16 17  2  0  0  0  0
 17 24  1  0  0  0  0
 17 18  2  0  0  0  0
 18 19  2  0  0  0  0
 19 21  1  0  0  0  0
 19 20  1  0  0  0  0
 22 23  1  0  0  0  0
 22 21  2  0  0  0  0
 24 22  1  0  0  0  0
 25 24  1  0  0  0  0
 27 26  1  0  0  0  0
 27 32  1  0  0  0  0
 28 29  2  0  0  0  0
 29 30  2  0  0  0  0
 30 36  1  0  0  0  0
 31 30  1  0  0  0  0
 32 31  2  0  0  0  0
 33 28  1  0  0  0  0
 33 32  1  0  0  0  0
 34 35  1  0  0  0  0
 35 28  1  0  0  0  0
 36 37  1  0  0  0  0
M  END
>  <minimizedAffinity>
-8.44293118

$$$$

 OpenBabel12271914523D

 37 41  0  0  1  0  0  0  0  0999 V2000
  -17.8560  -27.2040  -10.8070 C   0  0  2  0  0  0  0  0  0  0  0  0
  -18.5940  -28.1030   -9.9270 O   0  0  0  0  0  0  0  0  0  0  0  0
  -19.9370  -28.2600  -10.0740 C   0  0  0  0  0  0  0  0  0  0  0  0
  -20.4620  -29.3030   -9.7480 O   0  0  0  0  0  0  0  0  0  0  0  0
  -20.6610  -27.1210  -10.6500 C   0  0  1  0  0  0  0  0  0  0  0  0
  -20.0760  -25.9500  -11.0210 C   0  0  0  0  0  0  0  0  0  0  0  0
  -20.6120  -24.9770  -11.5400 O   0  0  0  0  0  0  0  0  0  0  0  0
  -18.5150  -25.8490  -10.7960 C   0  0  0  0  0  0  0  0  0  0  0  0
  -17.9180  -27.8450  -12.1800 C   0  0  0  0  0  0  0  0  0  0  0  0
  -17.3780  -29.2720  -12.1820 C   0  0  0  0  0  0  0  0  0  0  0  0
  -17.2930  -29.5120  -13.6700 C   0  0  0  0  0  0  0  0  0  0  0  0
  -16.5400  -28.2750  -14.1380 C   0  0  0  0  0  0  0  0  0  0  0  0
  -17.2230  -27.1590  -13.3560 C   0  0  0  0  0  0  0  0  0  0  0  0
  -22.1620  -27.1940  -10.8890 C   0  0  0  0  0  0  0  0  0  0  0  0
  -22.9880  -26.8510   -9.6460 C   0  0  0  0  0  0  0  0  0  0  0  0
  -22.8820  -25.7040   -8.9030 N   0  0  0  0  0  0  0  0  0  0  0  0
  -23.8160  -25.8490   -7.9350 C   0  0  0  0  0  0  0  0  0  0  0  0
  -24.1920  -25.0100   -6.8860 N   0  0  0  0  0  0  0  0  0  0  0  0
  -25.1330  -25.3510   -6.0790 C   0  0  0  0  0  0  0  0  0  0  0  0
  -25.5820  -24.4680   -4.9150 C   0  0  0  0  0  0  0  0  0  0  0  0
  -25.8420  -26.6410   -6.2190 C   0  0  0  0  0  0  0  0  0  0  0  0
  -25.4750  -27.4320   -7.2280 C   0  0  0  0  0  0  0  0  0  0  0  0
  -26.1320  -28.7510   -7.4380 C   0  0  0  0  0  0  0  0  0  0  0  0
  -24.4360  -27.0220   -8.1040 N   0  0  0  0  0  0  0  0  0  0  0  0
  -23.9240  -27.6570   -9.1900 N   0  0  0  0  0  0  0  0  0  0  0  0
  -16.4430  -27.1480  -10.1850 C   0  0  0  0  0  0  0  0  0  0  0  0
  -16.0900  -25.9590   -9.2980 C   0  0  0  0  0  0  0  0  0  0  0  0
  -17.8480  -26.4270   -6.0120 C   0  0  0  0  0  0  0  0  0  0  0  0
  -16.9110  -27.0250   -5.2540 N   0  0  0  0  0  0  0  0  0  0  0  0
  -15.6860  -27.2870   -5.8180 C   0  0  0  0  0  0  0  0  0  0  0  0
  -15.3970  -26.9600   -7.0940 C   0  0  0  0  0  0  0  0  0  0  0  0
  -16.3570  -26.3410   -7.8860 C   0  0  0  0  0  0  0  0  0  0  0  0
  -17.6070  -26.0640   -7.3010 C   0  0  0  0  0  0  0  0  0  0  0  0
  -20.1500  -25.7830   -6.5340 C   0  0  0  0  0  0  0  0  0  0  0  0
  -19.1950  -26.1050   -5.4000 C   0  0  0  0  0  0  0  0  0  0  0  0
  -14.6410  -27.9730   -4.9500 C   0  0  0  0  0  0  0  0  0  0  0  0
  -15.2590  -28.3780   -3.6340 C   0  0  0  0  0  0  0  0  0  0  0  0
  1  8  1  0  0  0  0
  1 26  1  1  0  0  0
  1  2  1  0  0  0  0
  3  2  1  0  0  0  0
  3  4  2  0  0  0  0
  5 14  1  6  0  0  0
  5  3  1  0  0  0  0
  6  8  1  0  0  0  0
  6  5  1  0  0  0  0
  7  6  2  0  0  0  0
  9  1  1  0  0  0  0
 10  9  1  0  0  0  0
 11 10  1  0  0  0  0
 12 11  1  0  0  0  0
 12 13  1  0  0  0  0
 13  9  1  0  0  0  0
 14 15  1  0  0  0  0
 15 25  2  0  0  0  0
 15 16  2  0  0  0  0
 16 17  2  0  0  0  0
 17 18  2  0  0  0  0
 18 19  2  0  0  0  0
 19 20  1  0  0  0  0
 21 19  1  0  0  0  0
 22 21  2  0  0  0  0
 23 22  1  0  0  0  0
 24 17  1  0  0  0  0
 24 22  1  0  0  0  0
 25 24  1  0  0  0  0
 26 27  1  0  0  0  0
 27 32  1  0  0  0  0
 28 35  1  0  0  0  0
 28 29  2  0  0  0  0
 30 29  2  0  0  0  0
 30 36  1  0  0  0  0
 31 30  1  0  0  0  0
 32 33  1  0  0  0  0
 32 31  2  0  0  0  0
 33 28  1  0  0  0  0
 34 35  1  0  0  0  0
 36 37  1  0  0  0  0
M  END
>  <minimizedAffinity>
-8.43064976

$$$$

 OpenBabel12271914523D

 37 41  0  0  1  0  0  0  0  0999 V2000
  -15.6580  -26.5790  -11.4350 C   0  0  2  0  0  0  0  0  0  0  0  0
  -16.4800  -27.6820  -10.9510 O   0  0  0  0  0  0  0  0  0  0  0  0
  -17.7010  -27.9220  -11.4990 C   0  0  0  0  0  0  0  0  0  0  0  0
  -18.1520  -29.0470  -11.4990 O   0  0  0  0  0  0  0  0  0  0  0  0
  -18.3880  -26.7620  -12.0780 C   0  0  1  0  0  0  0  0  0  0  0  0
  -17.8840  -25.4980  -12.0840 C   0  0  0  0  0  0  0  0  0  0  0  0
  -18.3840  -24.4950  -12.5820 O   0  0  0  0  0  0  0  0  0  0  0  0
  -16.4680  -25.3090  -11.4080 C   0  0  0  0  0  0  0  0  0  0  0  0
  -15.2630  -26.9610  -12.8480 C   0  0  0  0  0  0  0  0  0  0  0  0
  -13.9420  -27.7220  -12.8990 C   0  0  0  0  0  0  0  0  0  0  0  0
  -13.6840  -27.6910  -14.3860 C   0  0  0  0  0  0  0  0  0  0  0  0
  -13.8750  -26.2130  -14.7000 C   0  0  0  0  0  0  0  0  0  0  0  0
  -15.1300  -25.8680  -13.9080 C   0  0  0  0  0  0  0  0  0  0  0  0
  -19.7460  -26.9160  -12.7470 C   0  0  0  0  0  0  0  0  0  0  0  0
  -20.9150  -26.8330  -11.7610 C   0  0  0  0  0  0  0  0  0  0  0  0
  -21.7500  -27.8640  -11.4180 N   0  0  0  0  0  0  0  0  0  0  0  0
  -22.5970  -27.3170  -10.5160 C   0  0  0  0  0  0  0  0  0  0  0  0
  -23.6610  -27.8690   -9.8000 N   0  0  0  0  0  0  0  0  0  0  0  0
  -24.3330  -27.1530   -8.9700 C   0  0  0  0  0  0  0  0  0  0  0  0
  -25.5060  -27.7090   -8.1620 C   0  0  0  0  0  0  0  0  0  0  0  0
  -24.0180  -25.7250   -8.7490 C   0  0  0  0  0  0  0  0  0  0  0  0
  -22.9980  -25.2120   -9.4370 C   0  0  0  0  0  0  0  0  0  0  0  0
  -22.6180  -23.7810   -9.2800 C   0  0  0  0  0  0  0  0  0  0  0  0
  -22.2730  -26.0310  -10.3420 N   0  0  0  0  0  0  0  0  0  0  0  0
  -21.2040  -25.7200  -11.1190 N   0  0  0  0  0  0  0  0  0  0  0  0
  -14.4840  -26.5180  -10.4320 C   0  0  0  0  0  0  0  0  0  0  0  0
  -14.4200  -25.3430   -9.4630 C   0  0  0  0  0  0  0  0  0  0  0  0
  -16.9710  -25.5810   -6.7170 C   0  0  0  0  0  0  0  0  0  0  0  0
  -16.4110  -26.4570   -5.8630 N   0  0  0  0  0  0  0  0  0  0  0  0
  -15.1850  -26.9850   -6.1830 C   0  0  0  0  0  0  0  0  0  0  0  0
  -14.5300  -26.6520   -7.3140 C   0  0  0  0  0  0  0  0  0  0  0  0
  -15.0990  -25.7470   -8.2030 C   0  0  0  0  0  0  0  0  0  0  0  0
  -16.3500  -25.1990   -7.8660 C   0  0  0  0  0  0  0  0  0  0  0  0
  -19.1000  -26.0000   -5.5840 C   0  0  0  0  0  0  0  0  0  0  0  0
  -18.3110  -24.9670   -6.3670 C   0  0  0  0  0  0  0  0  0  0  0  0
  -14.5690  -27.9820   -5.2110 C   0  0  0  0  0  0  0  0  0  0  0  0
  -15.4810  -28.1630   -4.0230 C   0  0  0  0  0  0  0  0  0  0  0  0
  1  8  1  0  0  0  0
  1  2  1  0  0  0  0
  1 26  1  1  0  0  0
  3  4  2  0  0  0  0
  3  2  1  0  0  0  0
  5 14  1  6  0  0  0
  5  3  1  0  0  0  0
  6  5  1  0  0  0  0
  6  8  1  0  0  0  0
  7  6  2  0  0  0  0
  9  1  1  0  0  0  0
 10  9  1  0  0  0  0
 11 10  1  0  0  0  0
 12 11  1  0  0  0  0
 12 13  1  0  0  0  0
 13  9  1  0  0  0  0
 14 15  1  0  0  0  0
 15 16  2  0  0  0  0
 15 25  2  0  0  0  0
 16 17  2  0  0  0  0
 17 24  1  0  0  0  0
 17 18  2  0  0  0  0
 18 19  2  0  0  0  0
 19 21  1  0  0  0  0
 19 20  1  0  0  0  0
 22 23  1  0  0  0  0
 22 21  2  0  0  0  0
 24 22  1  0  0  0  0
 25 24  1  0  0  0  0
 26 27  1  0  0  0  0
 27 32  1  0  0  0  0
 28 35  1  0  0  0  0
 28 29  2  0  0  0  0
 30 29  2  0  0  0  0
 30 36  1  0  0  0  0
 31 30  1  0  0  0  0
 32 33  1  0  0  0  0
 32 31  2  0  0  0  0
 33 28  1  0  0  0  0
 35 34  1  0  0  0  0
 36 37  1  0  0  0  0
M  END
>  <minimizedAffinity>
-8.39992809

$$$$

 OpenBabel12271914523D

 37 41  0  0  1  0  0  0  0  0999 V2000
  -17.5800  -27.3570  -10.8500 C   0  0  2  0  0  0  0  0  0  0  0  0
  -18.4490  -28.2520  -10.0950 O   0  0  0  0  0  0  0  0  0  0  0  0
  -19.7780  -28.3190  -10.3770 C   0  0  0  0  0  0  0  0  0  0  0  0
  -20.3900  -29.3440  -10.1610 O   0  0  0  0  0  0  0  0  0  0  0  0
  -20.3770  -27.1100  -10.9540 C   0  0  1  0  0  0  0  0  0  0  0  0
  -19.6950  -25.9600  -11.2010 C   0  0  0  0  0  0  0  0  0  0  0  0
  -20.1220  -24.9320  -11.7140 O   0  0  0  0  0  0  0  0  0  0  0  0
  -18.1590  -25.9660  -10.8260 C   0  0  0  0  0  0  0  0  0  0  0  0
  -17.5430  -27.9220  -12.2560 C   0  0  0  0  0  0  0  0  0  0  0  0
  -17.4170  -29.4430  -12.2700 C   0  0  0  0  0  0  0  0  0  0  0  0
  -17.1110  -29.6620  -13.7320 C   0  0  0  0  0  0  0  0  0  0  0  0
  -15.9780  -28.6720  -13.9610 C   0  0  0  0  0  0  0  0  0  0  0  0
  -16.4740  -27.4300  -13.2320 C   0  0  0  0  0  0  0  0  0  0  0  0
  -21.8490  -27.0800  -11.3370 C   0  0  0  0  0  0  0  0  0  0  0  0
  -22.7730  -26.7560  -10.1590 C   0  0  0  0  0  0  0  0  0  0  0  0
  -22.9490  -25.5200   -9.5930 N   0  0  0  0  0  0  0  0  0  0  0  0
  -23.8600  -25.7310   -8.6160 C   0  0  0  0  0  0  0  0  0  0  0  0
  -24.4480  -24.8550   -7.7020 N   0  0  0  0  0  0  0  0  0  0  0  0
  -25.3170  -25.2790   -6.8540 C   0  0  0  0  0  0  0  0  0  0  0  0
  -25.9900  -24.3610   -5.8340 C   0  0  0  0  0  0  0  0  0  0  0  0
  -25.7160  -26.7020   -6.8030 C   0  0  0  0  0  0  0  0  0  0  0  0
  -25.1490  -27.5270   -7.6840 C   0  0  0  0  0  0  0  0  0  0  0  0
  -25.4900  -28.9750   -7.6970 C   0  0  0  0  0  0  0  0  0  0  0  0
  -24.1980  -27.0250   -8.6100 N   0  0  0  0  0  0  0  0  0  0  0  0
  -23.5210  -27.6780   -9.5900 N   0  0  0  0  0  0  0  0  0  0  0  0
  -16.2330  -27.4180  -10.0950 C   0  0  0  0  0  0  0  0  0  0  0  0
  -15.8220  -26.2170   -9.2510 C   0  0  0  0  0  0  0  0  0  0  0  0
  -15.5860  -27.3660   -5.6840 C   0  0  0  0  0  0  0  0  0  0  0  0
  -16.8000  -27.0620   -5.1900 N   0  0  0  0  0  0  0  0  0  0  0  0
  -17.7130  -26.4700   -6.0270 C   0  0  0  0  0  0  0  0  0  0  0  0
  -17.4340  -26.1910   -7.3160 C   0  0  0  0  0  0  0  0  0  0  0  0
  -16.1830  -26.5010   -7.8370 C   0  0  0  0  0  0  0  0  0  0  0  0
  -15.2530  -27.1190   -6.9800 C   0  0  0  0  0  0  0  0  0  0  0  0
  -15.2920  -28.4470   -3.5080 C   0  0  0  0  0  0  0  0  0  0  0  0
  -14.5750  -28.0450   -4.7840 C   0  0  0  0  0  0  0  0  0  0  0  0
  -19.0790  -26.1230   -5.4510 C   0  0  0  0  0  0  0  0  0  0  0  0
  -20.0340  -25.7890   -6.5710 C   0  0  0  0  0  0  0  0  0  0  0  0
  1  8  1  0  0  0  0
  1  2  1  0  0  0  0
  1 26  1  1  0  0  0
  3  4  2  0  0  0  0
  3  2  1  0  0  0  0
  5 14  1  6  0  0  0
  5  3  1  0  0  0  0
  6  5  1  0  0  0  0
  6  8  1  0  0  0  0
  7  6  2  0  0  0  0
  9  1  1  0  0  0  0
 10  9  1  0  0  0  0
 11 10  1  0  0  0  0
 12 11  1  0  0  0  0
 12 13  1  0  0  0  0
 13  9  1  0  0  0  0
 14 15  1  0  0  0  0
 15 16  2  0  0  0  0
 15 25  2  0  0  0  0
 16 17  2  0  0  0  0
 17 24  1  0  0  0  0
 17 18  2  0  0  0  0
 18 19  2  0  0  0  0
 19 21  1  0  0  0  0
 19 20  1  0  0  0  0
 22 21  2  0  0  0  0
 23 22  1  0  0  0  0
 24 22  1  0  0  0  0
 25 24  1  0  0  0  0
 26 27  1  0  0  0  0
 27 32  1  0  0  0  0
 28 29  2  0  0  0  0
 28 35  1  0  0  0  0
 30 36  1  0  0  0  0
 30 29  2  0  0  0  0
 31 30  1  0  0  0  0
 32 31  2  0  0  0  0
 32 33  1  0  0  0  0
 33 28  1  0  0  0  0
 35 34  1  0  0  0  0
 37 36  1  0  0  0  0
M  END
>  <minimizedAffinity>
-8.35761547

$$$$

 OpenBabel12271914523D

 37 41  0  0  1  0  0  0  0  0999 V2000
  -19.9520  -27.8150  -10.3840 C   0  0  2  0  0  0  0  0  0  0  0  0
  -21.1950  -28.5670  -10.5140 O   0  0  0  0  0  0  0  0  0  0  0  0
  -22.3940  -27.9420  -10.3730 C   0  0  0  0  0  0  0  0  0  0  0  0
  -23.3710  -28.3730  -10.9490 O   0  0  0  0  0  0  0  0  0  0  0  0
  -22.4040  -26.7490   -9.5200 C   0  0  1  0  0  0  0  0  0  0  0  0
  -21.3110  -26.2600   -8.8750 C   0  0  0  0  0  0  0  0  0  0  0  0
  -21.2410  -25.2510   -8.1810 O   0  0  0  0  0  0  0  0  0  0  0  0
  -19.9640  -27.0600   -9.0810 C   0  0  0  0  0  0  0  0  0  0  0  0
  -19.9230  -26.8770  -11.5740 C   0  0  0  0  0  0  0  0  0  0  0  0
  -19.4200  -27.5590  -12.8430 C   0  0  0  0  0  0  0  0  0  0  0  0
  -19.2260  -26.3490  -13.7250 C   0  0  0  0  0  0  0  0  0  0  0  0
  -18.4100  -25.4360  -12.8200 C   0  0  0  0  0  0  0  0  0  0  0  0
  -19.1240  -25.5770  -11.4810 C   0  0  0  0  0  0  0  0  0  0  0  0
  -23.6830  -25.9510   -9.3140 C   0  0  0  0  0  0  0  0  0  0  0  0
  -24.1500  -25.9270   -7.8560 C   0  0  0  0  0  0  0  0  0  0  0  0
  -24.4240  -24.8050   -7.1180 N   0  0  0  0  0  0  0  0  0  0  0  0
  -24.8140  -25.2860   -5.9160 C   0  0  0  0  0  0  0  0  0  0  0  0
  -25.2280  -24.6330   -4.7540 N   0  0  0  0  0  0  0  0  0  0  0  0
  -25.5720  -25.3040   -3.7120 C   0  0  0  0  0  0  0  0  0  0  0  0
  -26.0330  -24.6370   -2.4160 C   0  0  0  0  0  0  0  0  0  0  0  0
  -25.5310  -26.7820   -3.6970 C   0  0  0  0  0  0  0  0  0  0  0  0
  -25.1360  -27.3930   -4.8150 C   0  0  0  0  0  0  0  0  0  0  0  0
  -25.0610  -28.8780   -4.8830 C   0  0  0  0  0  0  0  0  0  0  0  0
  -24.7690  -26.6220   -5.9490 N   0  0  0  0  0  0  0  0  0  0  0  0
  -24.3600  -27.0350   -7.1760 N   0  0  0  0  0  0  0  0  0  0  0  0
  -18.8530  -28.9020  -10.3940 C   0  0  0  0  0  0  0  0  0  0  0  0
  -17.9460  -29.0240   -9.1760 C   0  0  0  0  0  0  0  0  0  0  0  0
  -15.0140  -26.7940   -8.4420 C   0  0  0  0  0  0  0  0  0  0  0  0
  -14.6230  -26.4000   -9.6680 N   0  0  0  0  0  0  0  0  0  0  0  0
  -15.3190  -26.8690  -10.7550 C   0  0  0  0  0  0  0  0  0  0  0  0
  -16.3740  -27.6980  -10.6310 C   0  0  0  0  0  0  0  0  0  0  0  0
  -16.7870  -28.1110   -9.3700 C   0  0  0  0  0  0  0  0  0  0  0  0
  -16.0790  -27.6200   -8.2570 C   0  0  0  0  0  0  0  0  0  0  0  0
  -14.7710  -27.0370   -6.0190 C   0  0  0  0  0  0  0  0  0  0  0  0
  -14.2760  -26.2670   -7.2290 C   0  0  0  0  0  0  0  0  0  0  0  0
  -14.8580  -26.4210  -12.1350 C   0  0  0  0  0  0  0  0  0  0  0  0
  -15.2560  -27.4520  -13.1630 C   0  0  0  0  0  0  0  0  0  0  0  0
  1 26  1  6  0  0  0
  1  8  1  0  0  0  0
  2  1  1  0  0  0  0
  2  3  1  0  0  0  0
  3  5  1  0  0  0  0
  4  3  2  0  0  0  0
  5 14  1  6  0  0  0
  5  6  1  0  0  0  0
  6  7  2  0  0  0  0
  8  6  1  0  0  0  0
  9 13  1  0  0  0  0
  9  1  1  0  0  0  0
 10  9  1  0  0  0  0
 11 10  1  0  0  0  0
 11 12  1  0  0  0  0
 12 13  1  0  0  0  0
 14 15  1  0  0  0  0
 15 25  2  0  0  0  0
 15 16  2  0  0  0  0
 16 17  2  0  0  0  0
 17 18  2  0  0  0  0
 18 19  2  0  0  0  0
 19 21  1  0  0  0  0
 19 20  1  0  0  0  0
 22 21  2  0  0  0  0
 23 22  1  0  0  0  0
 24 17  1  0  0  0  0
 24 22  1  0  0  0  0
 25 24  1  0  0  0  0
 26 27  1  0  0  0  0
 28 33  1  0  0  0  0
 28 35  1  0  0  0  0
 29 28  2  0  0  0  0
 30 31  1  0  0  0  0
 30 29  2  0  0  0  0
 31 32  2  0  0  0  0
 32 27  1  0  0  0  0
 32 33  1  0  0  0  0
 35 34  1  0  0  0  0
 36 30  1  0  0  0  0
 37 36  1  0  0  0  0
M  END
>  <minimizedAffinity>
-8.11044693

$$$$
