
 OpenBabel12271914423D

 25 29  0  0  1  0  0  0  0  0999 V2000
  -17.8950  -27.8780   -9.7480 C   0  0  1  0  0  0  0  0  0  0  0  0
  -16.8660  -27.4710   -8.7390 C   0  0  1  0  0  0  0  0  0  0  0  0
  -15.5160  -26.9370   -9.1510 C   0  0  0  0  0  0  0  0  0  0  0  0
  -15.2220  -26.7830  -10.5110 C   0  0  0  0  0  0  0  0  0  0  0  0
  -13.9740  -26.2200  -10.8700 C   0  0  0  0  0  0  0  0  0  0  0  0
  -13.6000  -25.9310  -12.1250 O   0  0  0  0  0  0  0  0  0  0  0  0
  -12.4570  -25.0960  -11.9450 C   0  0  0  0  0  0  0  0  0  0  0  0
  -11.9740  -25.2870  -10.5940 O   0  0  0  0  0  0  0  0  0  0  0  0
  -13.0510  -25.8490   -9.9770 C   0  0  0  0  0  0  0  0  0  0  0  0
  -13.2680  -26.0020   -8.6330 C   0  0  0  0  0  0  0  0  0  0  0  0
  -14.5160  -26.5270   -8.1980 C   0  0  0  0  0  0  0  0  0  0  0  0
  -14.5630  -26.5340   -6.7020 C   0  0  0  0  0  0  0  0  0  0  0  0
  -15.9970  -26.4350   -6.1500 C   0  0  0  0  0  0  0  0  0  0  0  0
  -16.8550  -25.5800   -7.0530 N   0  0  2  0  0  0  0  0  0  0  0  0
  -16.3020  -24.8800   -7.5740 H   0  0  0  0  0  0  0  0  0  0  0  0
  -17.8920  -24.8840   -6.2170 C   0  0  0  0  0  0  0  0  0  0  0  0
  -18.7060  -26.0770   -5.7620 C   0  0  0  0  0  0  0  0  0  0  0  0
  -18.7320  -27.0030   -6.9900 C   0  0  0  0  0  0  0  0  0  0  0  0
  -17.6800  -26.4290   -7.9470 C   0  0  2  0  0  0  0  0  0  0  0  0
  -18.3200  -25.7090   -9.0970 C   0  0  0  0  0  0  0  0  0  0  0  0
  -18.4560  -26.5420  -10.1260 C   0  0  1  0  0  0  0  0  0  0  0  0
  -17.4440  -28.6340  -10.8420 O   0  0  0  0  0  0  0  0  0  0  0  0
  -16.7950  -29.2840  -10.5370 H   0  0  0  0  0  0  0  0  0  0  0  0
  -18.9310  -26.1970  -11.3440 O   0  0  0  0  0  0  0  0  0  0  0  0
  -18.1940  -25.3080  -12.1880 C   0  0  0  0  0  0  0  0  0  0  0  0
  1 22  1  6  0  0  0
  1  2  1  0  0  0  0
  2 19  1  1  0  0  0
  3  2  1  0  0  0  0
  3 11  2  0  0  0  0
  4  3  1  0  0  0  0
  5  4  2  0  0  0  0
  5  9  1  0  0  0  0
  6  7  1  0  0  0  0
  6  5  1  0  0  0  0
  7  8  1  0  0  0  0
  8  9  1  0  0  0  0
  9 10  2  0  0  0  0
 10 11  1  0  0  0  0
 11 12  1  0  0  0  0
 12 13  1  0  0  0  0
 14 19  1  6  0  0  0
 14 16  1  0  0  0  0
 14 13  1  0  0  0  0
 15 14  1  0  0  0  0
 16 17  1  0  0  0  0
 18 17  1  0  0  0  0
 19 20  1  6  0  0  0
 19 18  1  0  0  0  0
 21 24  1  6  0  0  0
 21  1  1  0  0  0  0
 21 20  1  0  0  0  0
 22 23  1  0  0  0  0
 25 24  1  0  0  0  0
M  END
>  <minimizedAffinity>
-8.40950203

$$$$

 OpenBabel12271914423D

 25 29  0  0  1  0  0  0  0  0999 V2000
  -19.1840  -26.5270  -10.1670 C   0  0  1  0  0  0  0  0  0  0  0  0
  -17.7660  -26.0680  -10.3050 C   0  0  1  0  0  0  0  0  0  0  0  0
  -16.7780  -26.1790   -9.1690 C   0  0  0  0  0  0  0  0  0  0  0  0
  -17.1820  -26.7580   -7.9610 C   0  0  0  0  0  0  0  0  0  0  0  0
  -16.2210  -26.9110   -6.9330 C   0  0  0  0  0  0  0  0  0  0  0  0
  -16.4440  -27.5300   -5.7650 O   0  0  0  0  0  0  0  0  0  0  0  0
  -15.1330  -27.7250   -5.2380 C   0  0  0  0  0  0  0  0  0  0  0  0
  -14.2350  -26.8290   -5.9350 O   0  0  0  0  0  0  0  0  0  0  0  0
  -14.9520  -26.5080   -7.0490 C   0  0  0  0  0  0  0  0  0  0  0  0
  -14.5030  -25.9080   -8.1960 C   0  0  0  0  0  0  0  0  0  0  0  0
  -15.4060  -25.7560   -9.2840 C   0  0  0  0  0  0  0  0  0  0  0  0
  -14.6880  -25.1510  -10.4500 C   0  0  0  0  0  0  0  0  0  0  0  0
  -15.3150  -25.5380  -11.8020 C   0  0  0  0  0  0  0  0  0  0  0  0
  -15.8730  -26.9410  -11.7450 N   0  0  2  0  0  0  0  0  0  0  0  0
  -15.3820  -27.5330  -11.0550 H   0  0  0  0  0  0  0  0  0  0  0  0
  -15.7640  -27.5610  -13.1100 C   0  0  0  0  0  0  0  0  0  0  0  0
  -16.7320  -26.6830  -13.8750 C   0  0  0  0  0  0  0  0  0  0  0  0
  -17.8750  -26.4290  -12.8780 C   0  0  0  0  0  0  0  0  0  0  0  0
  -17.3390  -26.9100  -11.5230 C   0  0  2  0  0  0  0  0  0  0  0  0
  -17.9510  -28.2210  -11.1260 C   0  0  0  0  0  0  0  0  0  0  0  0
  -19.0170  -28.0030  -10.3590 C   0  0  1  0  0  0  0  0  0  0  0  0
  -19.8480  -26.1810   -8.9780 O   0  0  0  0  0  0  0  0  0  0  0  0
  -19.6170  -25.2740   -8.7340 H   0  0  0  0  0  0  0  0  0  0  0  0
  -19.7580  -28.9680   -9.7710 O   0  0  0  0  0  0  0  0  0  0  0  0
  -20.9360  -29.4710  -10.4090 C   0  0  0  0  0  0  0  0  0  0  0  0
  1 22  1  1  0  0  0
  2 19  1  6  0  0  0
  2  1  1  0  0  0  0
  2  3  1  0  0  0  0
  3  4  1  0  0  0  0
  4  5  2  0  0  0  0
  5  6  1  0  0  0  0
  6  7  1  0  0  0  0
  8  7  1  0  0  0  0
  9  5  1  0  0  0  0
  9  8  1  0  0  0  0
 10  9  2  0  0  0  0
 11  3  2  0  0  0  0
 11 10  1  0  0  0  0
 12 11  1  0  0  0  0
 13 14  1  0  0  0  0
 13 12  1  0  0  0  0
 14 19  1  1  0  0  0
 14 15  1  0  0  0  0
 16 14  1  0  0  0  0
 17 16  1  0  0  0  0
 17 18  1  0  0  0  0
 19 18  1  6  0  0  0
 19 20  1  0  0  0  0
 20 21  1  0  0  0  0
 21  1  1  0  0  0  0
 21 24  1  1  0  0  0
 22 23  1  0  0  0  0
 25 24  1  0  0  0  0
M  END
>  <minimizedAffinity>
-7.71795321

$$$$

 OpenBabel12271914423D

 25 29  0  0  1  0  0  0  0  0999 V2000
  -17.8340  -26.2350  -11.6050 C   0  0  1  0  0  0  0  0  0  0  0  0
  -16.3880  -25.9200  -11.3780 C   0  0  1  0  0  0  0  0  0  0  0  0
  -15.7380  -26.0920  -10.0270 C   0  0  0  0  0  0  0  0  0  0  0  0
  -16.4920  -26.5910   -8.9590 C   0  0  0  0  0  0  0  0  0  0  0  0
  -15.8440  -26.8040   -7.7190 C   0  0  0  0  0  0  0  0  0  0  0  0
  -16.4190  -27.3620   -6.6430 O   0  0  0  0  0  0  0  0  0  0  0  0
  -15.3110  -27.6670   -5.7980 C   0  0  0  0  0  0  0  0  0  0  0  0
  -14.1790  -26.8860   -6.2470 O   0  0  0  0  0  0  0  0  0  0  0  0
  -14.5530  -26.5310   -7.5080 C   0  0  0  0  0  0  0  0  0  0  0  0
  -13.7690  -26.0140   -8.5050 C   0  0  0  0  0  0  0  0  0  0  0  0
  -14.3450  -25.8080   -9.7890 C   0  0  0  0  0  0  0  0  0  0  0  0
  -13.2970  -25.3130  -10.7370 C   0  0  0  0  0  0  0  0  0  0  0  0
  -13.5960  -25.6800  -12.2010 C   0  0  0  0  0  0  0  0  0  0  0  0
  -14.2910  -27.0190  -12.2810 N   0  0  2  0  0  0  0  0  0  0  0  0
  -14.0550  -27.6330  -11.4860 H   0  0  0  0  0  0  0  0  0  0  0  0
  -13.9030  -27.6890  -13.5700 C   0  0  0  0  0  0  0  0  0  0  0  0
  -14.5500  -26.7450  -14.5620 C   0  0  0  0  0  0  0  0  0  0  0  0
  -15.8770  -26.3500  -13.8910 C   0  0  0  0  0  0  0  0  0  0  0  0
  -15.7540  -26.8380  -12.4420 C   0  0  2  0  0  0  0  0  0  0  0  0
  -16.5780  -28.0700  -12.2080 C   0  0  0  0  0  0  0  0  0  0  0  0
  -17.7750  -27.7250  -11.7400 C   0  0  1  0  0  0  0  0  0  0  0  0
  -18.7390  -25.7890  -10.6270 O   0  0  0  0  0  0  0  0  0  0  0  0
  -18.4860  -24.9010  -10.3370 H   0  0  0  0  0  0  0  0  0  0  0  0
  -18.7360  -28.5950  -11.3560 O   0  0  0  0  0  0  0  0  0  0  0  0
  -18.4920  -29.5320  -10.3020 C   0  0  0  0  0  0  0  0  0  0  0  0
  1  2  1  0  0  0  0
  1 22  1  1  0  0  0
  2 19  1  6  0  0  0
  2  3  1  0  0  0  0
  3 11  2  0  0  0  0
  3  4  1  0  0  0  0
  4  5  2  0  0  0  0
  5  9  1  0  0  0  0
  5  6  1  0  0  0  0
  6  7  1  0  0  0  0
  8  7  1  0  0  0  0
  9  8  1  0  0  0  0
 10  9  2  0  0  0  0
 11 10  1  0  0  0  0
 12 11  1  0  0  0  0
 13 12  1  0  0  0  0
 14 19  1  6  0  0  0
 14 13  1  0  0  0  0
 14 15  1  0  0  0  0
 16 14  1  0  0  0  0
 17 18  1  0  0  0  0
 17 16  1  0  0  0  0
 19 18  1  6  0  0  0
 19 20  1  0  0  0  0
 20 21  1  0  0  0  0
 21  1  1  0  0  0  0
 21 24  1  1  0  0  0
 22 23  1  0  0  0  0
 24 25  1  0  0  0  0
M  END
>  <minimizedAffinity>
-7.64515877

$$$$

 OpenBabel12271914423D

 25 29  0  0  1  0  0  0  0  0999 V2000
  -17.5040  -28.4190   -9.7000 C   0  0  1  0  0  0  0  0  0  0  0  0
  -16.3260  -27.6120   -9.2480 C   0  0  1  0  0  0  0  0  0  0  0  0
  -15.3390  -27.0270  -10.2290 C   0  0  0  0  0  0  0  0  0  0  0  0
  -15.5420  -27.2100  -11.6010 C   0  0  0  0  0  0  0  0  0  0  0  0
  -14.6390  -26.5970  -12.5030 C   0  0  0  0  0  0  0  0  0  0  0  0
  -14.7660  -26.6100  -13.8370 O   0  0  0  0  0  0  0  0  0  0  0  0
  -13.8470  -25.6070  -14.2660 C   0  0  0  0  0  0  0  0  0  0  0  0
  -12.9230  -25.3540  -13.1810 O   0  0  0  0  0  0  0  0  0  0  0  0
  -13.5870  -25.8720  -12.1090 C   0  0  0  0  0  0  0  0  0  0  0  0
  -13.3180  -25.6820  -10.7800 C   0  0  0  0  0  0  0  0  0  0  0  0
  -14.2060  -26.2380   -9.8170 C   0  0  0  0  0  0  0  0  0  0  0  0
  -13.7650  -25.8450   -8.4420 C   0  0  0  0  0  0  0  0  0  0  0  0
  -14.9270  -25.8020   -7.4330 C   0  0  0  0  0  0  0  0  0  0  0  0
  -16.2010  -25.3520   -8.1110 N   0  0  2  0  0  0  0  0  0  0  0  0
  -16.0200  -24.7500   -8.9300 H   0  0  0  0  0  0  0  0  0  0  0  0
  -17.0420  -24.6070   -7.1120 C   0  0  0  0  0  0  0  0  0  0  0  0
  -17.3720  -25.7340   -6.1550 C   0  0  0  0  0  0  0  0  0  0  0  0
  -17.5830  -26.9520   -7.0700 C   0  0  0  0  0  0  0  0  0  0  0  0
  -17.0540  -26.5190   -8.4430 C   0  0  2  0  0  0  0  0  0  0  0  0
  -18.1770  -26.2350   -9.3970 C   0  0  0  0  0  0  0  0  0  0  0  0
  -18.4450  -27.3270  -10.1090 C   0  0  1  0  0  0  0  0  0  0  0  0
  -17.2710  -29.3730  -10.7040 O   0  0  0  0  0  0  0  0  0  0  0  0
  -16.4290  -29.8180  -10.5330 H   0  0  0  0  0  0  0  0  0  0  0  0
  -19.3520  -27.3970  -11.1090 O   0  0  0  0  0  0  0  0  0  0  0  0
  -20.6470  -27.9620  -10.8790 C   0  0  0  0  0  0  0  0  0  0  0  0
  1 22  1  6  0  0  0
  1  2  1  0  0  0  0
  2 19  1  6  0  0  0
  3 11  1  0  0  0  0
  3  2  1  0  0  0  0
  4  3  2  0  0  0  0
  5  9  2  0  0  0  0
  5  4  1  0  0  0  0
  6  5  1  0  0  0  0
  7  6  1  0  0  0  0
  7  8  1  0  0  0  0
  8  9  1  0  0  0  0
  9 10  1  0  0  0  0
 10 11  2  0  0  0  0
 11 12  1  0  0  0  0
 12 13  1  0  0  0  0
 14 19  1  6  0  0  0
 14 13  1  0  0  0  0
 14 16  1  0  0  0  0
 15 14  1  0  0  0  0
 16 17  1  0  0  0  0
 18 17  1  0  0  0  0
 19 20  1  6  0  0  0
 19 18  1  0  0  0  0
 21 24  1  6  0  0  0
 21  1  1  0  0  0  0
 21 20  1  0  0  0  0
 22 23  1  0  0  0  0
 24 25  1  0  0  0  0
M  END
>  <minimizedAffinity>
-7.64333296

$$$$

 OpenBabel12271914423D

 25 29  0  0  1  0  0  0  0  0999 V2000
  -16.4220  -25.9570  -10.5780 C   0  0  1  0  0  0  0  0  0  0  0  0
  -17.0130  -25.7310   -9.2210 C   0  0  1  0  0  0  0  0  0  0  0  0
  -18.4890  -25.9030   -8.9570 C   0  0  0  0  0  0  0  0  0  0  0  0
  -19.3300  -26.3170   -9.9960 C   0  0  0  0  0  0  0  0  0  0  0  0
  -20.6990  -26.5330   -9.7080 C   0  0  0  0  0  0  0  0  0  0  0  0
  -21.5950  -27.0180  -10.5800 O   0  0  0  0  0  0  0  0  0  0  0  0
  -22.7040  -27.3690   -9.7530 C   0  0  0  0  0  0  0  0  0  0  0  0
  -22.5550  -26.6770   -8.4910 O   0  0  0  0  0  0  0  0  0  0  0  0
  -21.2350  -26.3390   -8.4990 C   0  0  0  0  0  0  0  0  0  0  0  0
  -20.4700  -25.9050   -7.4490 C   0  0  0  0  0  0  0  0  0  0  0  0
  -19.0780  -25.7030   -7.6570 C   0  0  0  0  0  0  0  0  0  0  0  0
  -18.4300  -25.3070   -6.3660 C   0  0  0  0  0  0  0  0  0  0  0  0
  -16.9430  -25.7000   -6.3010 C   0  0  0  0  0  0  0  0  0  0  0  0
  -16.7020  -26.9920   -7.0450 N   0  0  2  0  0  0  0  0  0  0  0  0
  -17.5400  -27.5960   -7.0680 H   0  0  0  0  0  0  0  0  0  0  0  0
  -15.5680  -27.7260   -6.3850 C   0  0  0  0  0  0  0  0  0  0  0  0
  -14.4300  -26.7730   -6.6850 C   0  0  0  0  0  0  0  0  0  0  0  0
  -14.7260  -26.2720   -8.1090 C   0  0  0  0  0  0  0  0  0  0  0  0
  -16.1630  -26.7210   -8.4000 C   0  0  2  0  0  0  0  0  0  0  0  0
  -16.1910  -27.8890   -9.3430 C   0  0  0  0  0  0  0  0  0  0  0  0
  -16.3270  -27.4520  -10.5920 C   0  0  1  0  0  0  0  0  0  0  0  0
  -17.1240  -25.4230  -11.6710 O   0  0  0  0  0  0  0  0  0  0  0  0
  -17.4580  -24.5440  -11.4390 H   0  0  0  0  0  0  0  0  0  0  0  0
  -16.4580  -28.2440  -11.6800 O   0  0  0  0  0  0  0  0  0  0  0  0
  -17.5640  -29.1460  -11.7930 C   0  0  0  0  0  0  0  0  0  0  0  0
  1 22  1  6  0  0  0
  1  2  1  0  0  0  0
  2  3  1  0  0  0  0
  2 19  1  1  0  0  0
  3 11  2  0  0  0  0
  4  5  2  0  0  0  0
  4  3  1  0  0  0  0
  5  9  1  0  0  0  0
  6  7  1  0  0  0  0
  6  5  1  0  0  0  0
  7  8  1  0  0  0  0
  9  8  1  0  0  0  0
  9 10  2  0  0  0  0
 11 10  1  0  0  0  0
 11 12  1  0  0  0  0
 12 13  1  0  0  0  0
 14 19  1  6  0  0  0
 14 16  1  0  0  0  0
 14 13  1  0  0  0  0
 15 14  1  0  0  0  0
 17 16  1  0  0  0  0
 18 17  1  0  0  0  0
 19 20  1  6  0  0  0
 19 18  1  0  0  0  0
 21 24  1  1  0  0  0
 21  1  1  0  0  0  0
 21 20  1  0  0  0  0
 22 23  1  0  0  0  0
 25 24  1  0  0  0  0
M  END
>  <minimizedAffinity>
-7.40917921

$$$$

 OpenBabel12271914423D

 25 29  0  0  1  0  0  0  0  0999 V2000
  -22.4950  -24.5650   -8.4700 C   0  0  1  0  0  0  0  0  0  0  0  0
  -21.5620  -25.5640   -9.0810 C   0  0  1  0  0  0  0  0  0  0  0  0
  -20.3210  -26.0370   -8.3640 C   0  0  0  0  0  0  0  0  0  0  0  0
  -20.0460  -25.5600   -7.0770 C   0  0  0  0  0  0  0  0  0  0  0  0
  -18.9110  -26.0670   -6.4000 C   0  0  0  0  0  0  0  0  0  0  0  0
  -18.5820  -25.7690   -5.1340 O   0  0  0  0  0  0  0  0  0  0  0  0
  -17.6040  -26.7550   -4.8070 C   0  0  0  0  0  0  0  0  0  0  0  0
  -17.1070  -27.3170   -6.0450 O   0  0  0  0  0  0  0  0  0  0  0  0
  -18.0760  -26.9620   -6.9340 C   0  0  0  0  0  0  0  0  0  0  0  0
  -18.2750  -27.4450   -8.2010 C   0  0  0  0  0  0  0  0  0  0  0  0
  -19.4160  -27.0070   -8.9270 C   0  0  0  0  0  0  0  0  0  0  0  0
  -19.4760  -27.7160  -10.2440 C   0  0  0  0  0  0  0  0  0  0  0  0
  -20.9100  -27.8420  -10.7890 C   0  0  0  0  0  0  0  0  0  0  0  0
  -21.8950  -28.0090   -9.6560 N   0  0  2  0  0  0  0  0  0  0  0  0
  -21.4680  -28.4480   -8.8250 H   0  0  0  0  0  0  0  0  0  0  0  0
  -23.0450  -28.8500  -10.1360 C   0  0  0  0  0  0  0  0  0  0  0  0
  -23.6430  -27.9130  -11.1650 C   0  0  0  0  0  0  0  0  0  0  0  0
  -23.4970  -26.5190  -10.5320 C   0  0  0  0  0  0  0  0  0  0  0  0
  -22.5510  -26.7170   -9.3410 C   0  0  2  0  0  0  0  0  0  0  0  0
  -23.2970  -26.6820   -8.0390 C   0  0  0  0  0  0  0  0  0  0  0  0
  -23.2760  -25.4460   -7.5450 C   0  0  1  0  0  0  0  0  0  0  0  0
  -21.9090  -23.4560   -7.8380 O   0  0  0  0  0  0  0  0  0  0  0  0
  -21.1600  -23.1450   -8.3660 H   0  0  0  0  0  0  0  0  0  0  0  0
  -23.7930  -25.0820   -6.3500 O   0  0  0  0  0  0  0  0  0  0  0  0
  -25.2010  -25.1630   -6.1110 C   0  0  0  0  0  0  0  0  0  0  0  0
  1 22  1  1  0  0  0
  1 21  1  0  0  0  0
  2 19  1  1  0  0  0
  2  1  1  0  0  0  0
  2  3  1  0  0  0  0
  3  4  1  0  0  0  0
  4  5  2  0  0  0  0
  5  6  1  0  0  0  0
  6  7  1  0  0  0  0
  8  7  1  0  0  0  0
  9  5  1  0  0  0  0
  9  8  1  0  0  0  0
 10  9  2  0  0  0  0
 11  3  2  0  0  0  0
 11 10  1  0  0  0  0
 12 11  1  0  0  0  0
 13 12  1  0  0  0  0
 13 14  1  0  0  0  0
 14 19  1  1  0  0  0
 14 15  1  0  0  0  0
 16 14  1  0  0  0  0
 17 18  1  0  0  0  0
 17 16  1  0  0  0  0
 19 18  1  6  0  0  0
 19 20  1  0  0  0  0
 20 21  1  0  0  0  0
 21 24  1  1  0  0  0
 23 22  1  0  0  0  0
 24 25  1  0  0  0  0
M  END
>  <minimizedAffinity>
-7.34074354

$$$$

 OpenBabel12271914423D

 25 29  0  0  1  0  0  0  0  0999 V2000
  -16.5810  -27.4910   -8.2400 C   0  0  1  0  0  0  0  0  0  0  0  0
  -16.7660  -27.2060   -9.6990 C   0  0  1  0  0  0  0  0  0  0  0  0
  -18.0860  -26.7320  -10.2560 C   0  0  0  0  0  0  0  0  0  0  0  0
  -19.1620  -26.5180   -9.3880 C   0  0  0  0  0  0  0  0  0  0  0  0
  -20.3700  -26.0110   -9.9250 C   0  0  0  0  0  0  0  0  0  0  0  0
  -21.4450  -25.6730   -9.1990 O   0  0  0  0  0  0  0  0  0  0  0  0
  -22.2390  -24.9210  -10.1160 C   0  0  0  0  0  0  0  0  0  0  0  0
  -21.7770  -25.2190  -11.4550 O   0  0  0  0  0  0  0  0  0  0  0  0
  -20.5430  -25.7500  -11.2240 C   0  0  0  0  0  0  0  0  0  0  0  0
  -19.5370  -25.9660  -12.1280 C   0  0  0  0  0  0  0  0  0  0  0  0
  -18.2830  -26.4390  -11.6530 C   0  0  0  0  0  0  0  0  0  0  0  0
  -17.3160  -26.5300  -12.7930 C   0  0  0  0  0  0  0  0  0  0  0  0
  -15.8510  -26.3780  -12.3460 C   0  0  0  0  0  0  0  0  0  0  0  0
  -15.7500  -25.4200  -11.1810 N   0  0  2  0  0  0  0  0  0  0  0  0
  -16.5140  -24.7260  -11.1740 H   0  0  0  0  0  0  0  0  0  0  0  0
  -14.4250  -24.7130  -11.2520 C   0  0  0  0  0  0  0  0  0  0  0  0
  -13.4910  -25.8790  -11.0050 C   0  0  0  0  0  0  0  0  0  0  0  0
  -14.2220  -26.7280   -9.9520 C   0  0  0  0  0  0  0  0  0  0  0  0
  -15.6480  -26.1640   -9.9020 C   0  0  2  0  0  0  0  0  0  0  0  0
  -15.8690  -25.3410   -8.6670 C   0  0  0  0  0  0  0  0  0  0  0  0
  -16.3910  -26.1030   -7.7100 C   0  0  1  0  0  0  0  0  0  0  0  0
  -17.6060  -28.2080   -7.6010 O   0  0  0  0  0  0  0  0  0  0  0  0
  -17.9170  -28.9130   -8.1870 H   0  0  0  0  0  0  0  0  0  0  0  0
  -16.7790  -25.6600   -6.4930 O   0  0  0  0  0  0  0  0  0  0  0  0
  -17.9110  -24.7950   -6.3600 C   0  0  0  0  0  0  0  0  0  0  0  0
  1 21  1  0  0  0  0
  1 22  1  1  0  0  0
  2 19  1  1  0  0  0
  2  1  1  0  0  0  0
  3  2  1  0  0  0  0
  3  4  2  0  0  0  0
  5  4  1  0  0  0  0
  5  6  1  0  0  0  0
  7  6  1  0  0  0  0
  8  9  1  0  0  0  0
  8  7  1  0  0  0  0
  9  5  2  0  0  0  0
 10 11  2  0  0  0  0
 10  9  1  0  0  0  0
 11  3  1  0  0  0  0
 12 13  1  0  0  0  0
 12 11  1  0  0  0  0
 13 14  1  0  0  0  0
 14 15  1  0  0  0  0
 14 19  1  1  0  0  0
 16 14  1  0  0  0  0
 16 17  1  0  0  0  0
 17 18  1  0  0  0  0
 19 18  1  1  0  0  0
 19 20  1  0  0  0  0
 20 21  1  0  0  0  0
 21 24  1  6  0  0  0
 23 22  1  0  0  0  0
 24 25  1  0  0  0  0
M  END
>  <minimizedAffinity>
-7.31008911

$$$$

 OpenBabel12271914423D

 25 29  0  0  1  0  0  0  0  0999 V2000
  -15.7850  -25.4210  -11.0920 C   0  0  1  0  0  0  0  0  0  0  0  0
  -16.5800  -25.5770   -9.8330 C   0  0  1  0  0  0  0  0  0  0  0  0
  -17.9590  -26.1910   -9.8340 C   0  0  0  0  0  0  0  0  0  0  0  0
  -18.5030  -26.6600  -11.0350 C   0  0  0  0  0  0  0  0  0  0  0  0
  -19.7700  -27.2900  -10.9990 C   0  0  0  0  0  0  0  0  0  0  0  0
  -20.3650  -27.8670  -12.0530 O   0  0  0  0  0  0  0  0  0  0  0  0
  -21.4130  -28.6340  -11.4620 C   0  0  0  0  0  0  0  0  0  0  0  0
  -21.6350  -28.1280  -10.1240 O   0  0  0  0  0  0  0  0  0  0  0  0
  -20.4850  -27.4390   -9.8800 C   0  0  0  0  0  0  0  0  0  0  0  0
  -20.0200  -26.9740   -8.6780 C   0  0  0  0  0  0  0  0  0  0  0  0
  -18.7370  -26.3630   -8.6330 C   0  0  0  0  0  0  0  0  0  0  0  0
  -18.4020  -26.0030   -7.2190 C   0  0  0  0  0  0  0  0  0  0  0  0
  -16.8860  -25.9710   -6.9550 C   0  0  0  0  0  0  0  0  0  0  0  0
  -16.1810  -27.0170   -7.7870 N   0  0  2  0  0  0  0  0  0  0  0  0
  -16.7910  -27.8190   -8.0110 H   0  0  0  0  0  0  0  0  0  0  0  0
  -14.9710  -27.4970   -7.0340 C   0  0  0  0  0  0  0  0  0  0  0  0
  -14.1400  -26.2310   -7.0390 C   0  0  0  0  0  0  0  0  0  0  0  0
  -14.3920  -25.6220   -8.4280 C   0  0  0  0  0  0  0  0  0  0  0  0
  -15.5830  -26.4040   -8.9980 C   0  0  2  0  0  0  0  0  0  0  0  0
  -15.1450  -27.3760  -10.0540 C   0  0  0  0  0  0  0  0  0  0  0  0
  -15.2480  -26.8100  -11.2530 C   0  0  1  0  0  0  0  0  0  0  0  0
  -16.4730  -24.9440  -12.2200 O   0  0  0  0  0  0  0  0  0  0  0  0
  -17.0790  -24.2390  -11.9510 H   0  0  0  0  0  0  0  0  0  0  0  0
  -15.0010  -27.4330  -12.4270 O   0  0  0  0  0  0  0  0  0  0  0  0
  -13.8730  -27.0610  -13.2260 C   0  0  0  0  0  0  0  0  0  0  0  0
  1 22  1  6  0  0  0
  1  2  1  0  0  0  0
  2 19  1  1  0  0  0
  3  2  1  0  0  0  0
  3 11  2  0  0  0  0
  4  5  2  0  0  0  0
  4  3  1  0  0  0  0
  5  9  1  0  0  0  0
  6  7  1  0  0  0  0
  6  5  1  0  0  0  0
  7  8  1  0  0  0  0
  8  9  1  0  0  0  0
  9 10  2  0  0  0  0
 10 11  1  0  0  0  0
 11 12  1  0  0  0  0
 12 13  1  0  0  0  0
 14 19  1  6  0  0  0
 14 16  1  0  0  0  0
 14 13  1  0  0  0  0
 15 14  1  0  0  0  0
 17 16  1  0  0  0  0
 18 17  1  0  0  0  0
 19 20  1  6  0  0  0
 19 18  1  0  0  0  0
 21 24  1  6  0  0  0
 21  1  1  0  0  0  0
 21 20  1  0  0  0  0
 22 23  1  0  0  0  0
 25 24  1  0  0  0  0
M  END
>  <minimizedAffinity>
-7.29960346

$$$$

 OpenBabel12271914423D

 25 29  0  0  1  0  0  0  0  0999 V2000
  -19.0580  -29.6160  -10.4630 C   0  0  1  0  0  0  0  0  0  0  0  0
  -19.4350  -28.5060   -9.5300 C   0  0  1  0  0  0  0  0  0  0  0  0
  -18.4020  -27.7620   -8.7190 C   0  0  0  0  0  0  0  0  0  0  0  0
  -17.0490  -28.0890   -8.8630 C   0  0  0  0  0  0  0  0  0  0  0  0
  -16.0940  -27.3330   -8.1400 C   0  0  0  0  0  0  0  0  0  0  0  0
  -14.7650  -27.4750   -8.2530 O   0  0  0  0  0  0  0  0  0  0  0  0
  -14.2530  -26.3040   -7.6180 C   0  0  0  0  0  0  0  0  0  0  0  0
  -15.3060  -25.7480   -6.7940 O   0  0  0  0  0  0  0  0  0  0  0  0
  -16.4200  -26.3390   -7.3100 C   0  0  0  0  0  0  0  0  0  0  0  0
  -17.7290  -25.9910   -7.1040 C   0  0  0  0  0  0  0  0  0  0  0  0
  -18.7410  -26.6830   -7.8260 C   0  0  0  0  0  0  0  0  0  0  0  0
  -20.0790  -26.0930   -7.5060 C   0  0  0  0  0  0  0  0  0  0  0  0
  -21.0970  -26.2740   -8.6460 C   0  0  0  0  0  0  0  0  0  0  0  0
  -20.4070  -26.2120   -9.9890 N   0  0  2  0  0  0  0  0  0  0  0  0
  -19.5450  -25.6450   -9.9630 H   0  0  0  0  0  0  0  0  0  0  0  0
  -21.3620  -25.6360  -10.9970 C   0  0  0  0  0  0  0  0  0  0  0  0
  -22.4010  -26.7370  -11.0340 C   0  0  0  0  0  0  0  0  0  0  0  0
  -21.5780  -28.0320  -10.9240 C   0  0  0  0  0  0  0  0  0  0  0  0
  -20.1700  -27.5780  -10.5160 C   0  0  2  0  0  0  0  0  0  0  0  0
  -19.2140  -27.6590  -11.6700 C   0  0  0  0  0  0  0  0  0  0  0  0
  -18.5850  -28.8310  -11.6470 C   0  0  1  0  0  0  0  0  0  0  0  0
  -18.1210  -30.5490   -9.9890 O   0  0  0  0  0  0  0  0  0  0  0  0
  -18.3110  -30.7530   -9.0620 H   0  0  0  0  0  0  0  0  0  0  0  0
  -17.6050  -29.2010  -12.5030 O   0  0  0  0  0  0  0  0  0  0  0  0
  -16.6300  -28.2520  -12.9460 C   0  0  0  0  0  0  0  0  0  0  0  0
  1 22  1  1  0  0  0
  1  2  1  0  0  0  0
  2 19  1  6  0  0  0
  2  3  1  0  0  0  0
  3 11  1  0  0  0  0
  4  3  2  0  0  0  0
  4  5  1  0  0  0  0
  5  9  2  0  0  0  0
  6  5  1  0  0  0  0
  6  7  1  0  0  0  0
  7  8  1  0  0  0  0
  9 10  1  0  0  0  0
  9  8  1  0  0  0  0
 11 12  1  0  0  0  0
 11 10  2  0  0  0  0
 13 12  1  0  0  0  0
 14 19  1  6  0  0  0
 14 15  1  0  0  0  0
 14 13  1  0  0  0  0
 16 14  1  0  0  0  0
 17 16  1  0  0  0  0
 17 18  1  0  0  0  0
 18 19  1  0  0  0  0
 19 20  1  6  0  0  0
 20 21  1  0  0  0  0
 21 24  1  1  0  0  0
 21  1  1  0  0  0  0
 22 23  1  0  0  0  0
 25 24  1  0  0  0  0
M  END
>  <minimizedAffinity>
-7.29723358

$$$$
