2v7o
  PyMOL2.3          3D                             0

 33 37  0  0  0  0  0  0  0  0999 V2000
  -18.6980  -29.1460   -9.7940 C   0  0  0  0  0  0  0  0  0  0  0  0
  -18.3400  -25.5670  -13.6060 C   0  0  0  0  0  0  0  0  0  0  0  0
  -18.3270  -25.4310  -12.2130 C   0  0  0  0  0  0  0  0  0  0  0  0
  -17.1300  -25.5860  -11.5160 C   0  0  0  0  0  0  0  0  0  0  0  0
  -15.9460  -25.8900  -12.2000 C   0  0  0  0  0  0  0  0  0  0  0  0
  -15.9740  -26.0220  -13.5880 C   0  0  0  0  0  0  0  0  0  0  0  0
  -17.1680  -25.8590  -14.2970 C   0  0  0  0  0  0  0  0  0  0  0  0
  -14.6140  -26.1080  -11.8080 C   0  0  0  0  0  0  0  0  0  0  0  0
  -14.1050  -26.0740  -10.4870 C   0  0  0  0  0  0  0  0  0  0  0  0
  -14.6880  -26.4650   -9.2740 C   0  0  0  0  0  0  0  0  0  0  0  0
  -15.9720  -26.9880   -9.0840 C   0  0  0  0  0  0  0  0  0  0  0  0
  -16.5590  -27.9630   -9.7680 C   0  0  0  0  0  0  0  0  0  0  0  0
  -16.8690  -26.5240   -8.1150 C   0  0  0  0  0  0  0  0  0  0  0  0
  -18.0200  -27.2870   -8.2670 C   0  0  0  0  0  0  0  0  0  0  0  0
  -16.8110  -25.5390   -7.1240 C   0  0  0  0  0  0  0  0  0  0  0  0
  -17.9020  -25.3140   -6.2890 C   0  0  0  0  0  0  0  0  0  0  0  0
  -19.0540  -26.0710   -6.4470 C   0  0  0  0  0  0  0  0  0  0  0  0
  -19.1070  -27.0510   -7.4350 C   0  0  0  0  0  0  0  0  0  0  0  0
  -12.8280  -25.6260  -10.1440 C   0  0  0  0  0  0  0  0  0  0  0  0
  -13.7430  -26.2220   -8.2740 C   0  0  0  0  0  0  0  0  0  0  0  0
  -13.9070  -26.3420  -12.9260 C   0  0  0  0  0  0  0  0  0  0  0  0
  -14.3110  -26.5070  -15.4060 C   0  0  0  0  0  0  0  0  0  0  0  0
  -22.7040  -29.9430  -12.0110 N   0  0  0  0  0  0  0  0  0  0  0  0
  -14.7290  -26.2960  -13.9760 N   0  0  0  0  0  0  0  0  0  0  0  0
  -17.7810  -28.1230   -9.2790 N   0  0  0  0  0  0  0  0  0  0  0  0
  -12.6400  -25.7090   -8.8240 N   0  0  0  0  0  0  0  0  0  0  0  0
  -13.8790  -26.4350   -7.0610 O   0  0  0  0  0  0  0  0  0  0  0  0
  -11.9940  -25.1790  -10.9300 O   0  0  0  0  0  0  0  0  0  0  0  0
  -20.5360  -29.2450  -13.4920 S   0  0  0  0  0  0  0  0  0  0  0  0
  -22.1340  -29.9670  -13.2250 C   0  0  0  0  0  0  0  0  0  0  0  0
  -19.7060  -29.7950  -11.9550 C   0  0  0  0  0  0  0  0  0  0  0  0
  -19.4580  -28.6430  -10.9970 C   0  0  0  0  0  0  0  0  0  0  0  0
  -22.7730  -30.5400  -14.2510 N   0  0  0  0  0  0  0  0  0  0  0  0
  2  3  4  0  0  0  0
  3  4  4  0  0  0  0
  4  5  4  0  0  0  0
  5  8  4  0  0  0  0
  5  6  4  0  0  0  0
  6  7  4  0  0  0  0
  2  7  4  0  0  0  0
  8  9  1  0  0  0  0
  9 10  4  0  0  0  0
  9 19  4  0  0  0  0
 10 11  1  0  0  0  0
 11 12  4  0  0  0  0
 11 13  4  0  0  0  0
 13 14  4  0  0  0  0
 13 15  4  0  0  0  0
 14 25  4  0  0  0  0
 15 16  4  0  0  0  0
 16 17  4  0  0  0  0
 17 18  4  0  0  0  0
 14 18  4  0  0  0  0
 19 26  4  0  0  0  0
 19 28  2  0  0  0  0
 10 20  4  0  0  0  0
 20 27  2  0  0  0  0
  8 21  4  0  0  0  0
 22 24  1  0  0  0  0
  6 24  4  0  0  0  0
 21 24  4  0  0  0  0
  1 25  1  0  0  0  0
 12 25  4  0  0  0  0
 20 26  4  0  0  0  0
 23 30  1  0  0  0  0
 29 30  1  0  0  0  0
 30 33  1  0  0  0  0
 29 31  1  0  0  0  0
  1 32  1  0  0  0  0
 31 32  1  0  0  0  0
M  END
$$$$
