CHEMBL509032
     RDKit          2D

 42 46  0  0  0  0  0  0  0  0999 V2000
    3.7500   -1.2990    0.0000 C   0  0  0  0  0  0  0  0  0  0  0  0
    3.0000    0.0000    0.0000 O   0  0  0  0  0  0  0  0  0  0  0  0
    1.5000    0.0000    0.0000 C   0  0  0  0  0  0  0  0  0  0  0  0
    0.7500   -1.2990    0.0000 C   0  0  0  0  0  0  0  0  0  0  0  0
   -0.7500   -1.2990    0.0000 C   0  0  0  0  0  0  0  0  0  0  0  0
   -1.5000    0.0000    0.0000 C   0  0  0  0  0  0  0  0  0  0  0  0
   -0.7500    1.2990    0.0000 C   0  0  0  0  0  0  0  0  0  0  0  0
    0.7500    1.2990    0.0000 C   0  0  0  0  0  0  0  0  0  0  0  0
    1.5000    2.5981    0.0000 N   0  0  0  0  0  0  0  0  0  0  0  0
    3.0000    2.5981    0.0000 C   0  0  0  0  0  0  0  0  0  0  0  0
    3.7500    1.2990    0.0000 N   0  0  0  0  0  0  0  0  0  0  0  0
    5.2500    1.2990    0.0000 C   0  0  0  0  0  0  0  0  0  0  0  0
    6.0000    2.5981    0.0000 C   0  0  0  0  0  0  0  0  0  0  0  0
    7.5000    2.5981    0.0000 Cl  0  0  0  0  0  0  0  0  0  0  0  0
    5.2500    3.8971    0.0000 C   0  0  0  0  0  0  0  0  0  0  0  0
    6.0000    5.1962    0.0000 N   0  0  0  0  0  0  0  0  0  0  0  0
    5.2500    6.4952    0.0000 C   0  0  0  0  0  0  0  0  0  0  0  0
    3.7500    6.4952    0.0000 C   0  0  0  0  0  0  0  0  0  0  0  0
    3.0000    7.7942    0.0000 C   0  0  0  0  0  0  0  0  0  0  0  0
    3.7500    9.0933    0.0000 C   0  0  0  0  0  0  0  0  0  0  0  0
    5.2500    9.0933    0.0000 C   0  0  0  0  0  0  0  0  0  0  0  0
    6.0000    7.7942    0.0000 C   0  0  0  0  0  0  0  0  0  0  0  0
    7.5000    7.7942    0.0000 S   0  0  0  0  0  0  0  0  0  0  0  0
    7.5000    6.2942    0.0000 O   0  0  0  0  0  0  0  0  0  0  0  0
    7.5000    9.2942    0.0000 O   0  0  0  0  0  0  0  0  0  0  0  0
    9.0000    7.7942    0.0000 C   0  0  0  0  0  0  0  0  0  0  0  0
    9.7500    9.0933    0.0000 C   0  0  0  0  0  0  0  0  0  0  0  0
    9.7500    6.4952    0.0000 C   0  0  0  0  0  0  0  0  0  0  0  0
    3.7500    3.8971    0.0000 N   0  0  0  0  0  0  0  0  0  0  0  0
   -1.5000   -2.5981    0.0000 N   0  0  0  0  0  0  0  0  0  0  0  0
   -3.0000   -2.5981    0.0000 C   0  0  0  0  0  0  0  0  0  0  0  0
   -3.7500   -3.8971    0.0000 C   0  0  0  0  0  0  0  0  0  0  0  0
   -3.0000   -5.1962    0.0000 C   0  0  0  0  0  0  0  0  0  0  0  0
   -1.5000   -5.1962    0.0000 C   0  0  0  0  0  0  0  0  0  0  0  0
   -0.7500   -3.8971    0.0000 C   0  0  0  0  0  0  0  0  0  0  0  0
   -3.7500   -6.4952    0.0000 N   0  0  0  0  0  0  0  0  0  0  0  0
   -5.2500   -6.4952    0.0000 C   0  0  0  0  0  0  0  0  0  0  0  0
   -6.0000   -7.7942    0.0000 C   0  0  0  0  0  0  0  0  0  0  0  0
   -5.2500   -9.0933    0.0000 N   0  0  0  0  0  0  0  0  0  0  0  0
   -6.0000  -10.3923    0.0000 C   0  0  0  0  0  0  0  0  0  0  0  0
   -3.7500   -9.0933    0.0000 C   0  0  0  0  0  0  0  0  0  0  0  0
   -3.0000   -7.7942    0.0000 C   0  0  0  0  0  0  0  0  0  0  0  0
  1  2  1  0
  2  3  1  0
  3  4  2  0
  4  5  1  0
  5  6  2  0
  6  7  1  0
  7  8  2  0
  8  9  1  0
  9 10  1  0
 10 11  2  0
 11 12  1  0
 12 13  2  0
 13 14  1  0
 13 15  1  0
 15 16  1  0
 16 17  1  0
 17 18  2  0
 18 19  1  0
 19 20  2  0
 20 21  1  0
 21 22  2  0
 22 23  1  0
 23 24  2  0
 23 25  2  0
 23 26  1  0
 26 27  1  0
 26 28  1  0
 15 29  2  0
  5 30  1  0
 30 31  1  0
 31 32  1  0
 32 33  1  0
 33 34  1  0
 34 35  1  0
 33 36  1  0
 36 37  1  0
 37 38  1  0
 38 39  1  0
 39 40  1  0
 39 41  1  0
 41 42  1  0
  8  3  1  0
 29 10  1  0
 22 17  1  0
 35 30  1  0
 42 36  1  0
M  END
>  <activity_comment>  (1) 
active

>  <activity_id>  (1) 
9511283

>  <activity_properties>  (1) 
[]

>  <assay_chembl_id>  (1) 
CHEMBL1964111

>  <assay_description>  (1) 
PUBCHEM_BIOASSAY: Navigating the Kinome. (Class of assay: other) Panel member name: CAMK2A

>  <assay_type>  (1) 
F

>  <bao_endpoint>  (1) 
BAO_0000192

>  <bao_format>  (1) 
BAO_0000019

>  <bao_label>  (1) 
assay format

>  <canonical_smiles>  (1) 
COc1cc(ccc1Nc2ncc(Cl)c(Nc3ccccc3S(=O)(=O)C(C)C)n2)N4CCC(CC4)N5CCN(C)CC5

>  <data_validity_comment>  (1) 
nan

>  <data_validity_description>  (1) 
nan

>  <document_chembl_id>  (1) 
CHEMBL1201862

>  <document_journal>  (1) 
nan

>  <document_year>  (1) 
nan

>  <ligand_efficiency>  (1) 
nan

>  <molecule_pref_name>  (1) 
TAE-684

>  <parent_molecule_chembl_id>  (1) 
CHEMBL509032

>  <pchembl_value>  (1) 
6.2

>  <potential_duplicate>  (1) 
False

>  <qudt_units>  (1) 
http://www.openphacts.org/units/Nanomolar

>  <record_id>  (1) 
1584480

>  <relation>  (1) 
=

>  <src_id>  (1) 
7

>  <standard_flag>  (1) 
True

>  <standard_relation>  (1) 
=

>  <standard_text_value>  (1) 
nan

>  <standard_type>  (1) 
Ki

>  <standard_units>  (1) 
nM

>  <standard_upper_value>  (1) 
nan

>  <standard_value>  (1) 
630.96

>  <target_chembl_id>  (1) 
CHEMBL4147

>  <target_organism>  (1) 
Homo sapiens

>  <target_pref_name>  (1) 
CaM kinase II alpha

>  <target_tax_id>  (1) 
9606

>  <text_value>  (1) 
nan

>  <toid>  (1) 
nan

>  <type>  (1) 
pKi

>  <units>  (1) 
nan

>  <uo_units>  (1) 
UO_0000065

>  <upper_value>  (1) 
nan

>  <value>  (1) 
6.2

>  <SMILES>  (1) 
COc1cc(ccc1Nc2ncc(Cl)c(Nc3ccccc3S(=O)(=O)C(C)C)n2)N4CCC(CC4)N5CCN(C)CC5

>  <NAME>  (1) 
CHEMBL509032

>  <FILTER>  (1) 
OK

>  <MW>  (1) 
614.216

>  <LogP>  (1) 
5.0241

>  <HBD>  (1) 
2

>  <HBA>  (1) 
10

>  <TPSA>  (1) 
102.93

>  <Label>  (1) 
CAMK2A

$$$$
CHEMBL2007097
     RDKit          2D

 11 12  0  0  0  0  0  0  0  0999 V2000
   -3.5736    1.2902    0.0000 N   0  0  0  0  0  0  0  0  0  0  0  0
   -2.1470    1.7537    0.0000 C   0  0  0  0  0  0  0  0  0  0  0  0
   -1.8351    3.2209    0.0000 N   0  0  0  0  0  0  0  0  0  0  0  0
   -0.4086    3.6844    0.0000 C   0  0  0  0  0  0  0  0  0  0  0  0
   -0.0967    5.1517    0.0000 O   0  0  0  0  0  0  0  0  0  0  0  0
    0.7062    2.6807    0.0000 N   0  0  0  0  0  0  0  0  0  0  0  0
    0.3943    1.2135    0.0000 C   0  0  0  0  0  0  0  0  0  0  0  0
    1.2760    0.0000    0.0000 S   0  0  0  0  0  0  0  0  0  0  0  0
    0.3943   -1.2135    0.0000 C   0  0  0  0  0  0  0  0  0  0  0  0
   -1.0323   -0.7500    0.0000 C   0  0  0  0  0  0  0  0  0  0  0  0
   -1.0323    0.7500    0.0000 C   0  0  0  0  0  0  0  0  0  0  0  0
  1  2  1  0
  2  3  2  0
  3  4  1  0
  4  5  2  0
  4  6  1  0
  6  7  1  0
  7  8  1  0
  8  9  1  0
  9 10  2  0
 10 11  1  0
 11  2  1  0
 11  7  2  0
M  END
>  <activity_comment>  (2) 
active

>  <activity_id>  (2) 
9511278

>  <activity_properties>  (2) 
[]

>  <assay_chembl_id>  (2) 
CHEMBL1964111

>  <assay_description>  (2) 
PUBCHEM_BIOASSAY: Navigating the Kinome. (Class of assay: other) Panel member name: CAMK2A

>  <assay_type>  (2) 
F

>  <bao_endpoint>  (2) 
BAO_0000192

>  <bao_format>  (2) 
BAO_0000019

>  <bao_label>  (2) 
assay format

>  <canonical_smiles>  (2) 
NC1=NC(=O)Nc2sccc12

>  <data_validity_comment>  (2) 
nan

>  <data_validity_description>  (2) 
nan

>  <document_chembl_id>  (2) 
CHEMBL1201862

>  <document_journal>  (2) 
nan

>  <document_year>  (2) 
nan

>  <ligand_efficiency>  (2) 
nan

>  <molecule_pref_name>  (2) 
nan

>  <parent_molecule_chembl_id>  (2) 
CHEMBL2007097

>  <pchembl_value>  (2) 
4.0

>  <potential_duplicate>  (2) 
False

>  <qudt_units>  (2) 
http://www.openphacts.org/units/Nanomolar

>  <record_id>  (2) 
1585483

>  <relation>  (2) 
=

>  <src_id>  (2) 
7

>  <standard_flag>  (2) 
True

>  <standard_relation>  (2) 
=

>  <standard_text_value>  (2) 
nan

>  <standard_type>  (2) 
Ki

>  <standard_units>  (2) 
nM

>  <standard_upper_value>  (2) 
nan

>  <standard_value>  (2) 
100000.0

>  <target_chembl_id>  (2) 
CHEMBL4147

>  <target_organism>  (2) 
Homo sapiens

>  <target_pref_name>  (2) 
CaM kinase II alpha

>  <target_tax_id>  (2) 
9606

>  <text_value>  (2) 
nan

>  <toid>  (2) 
nan

>  <type>  (2) 
pKi

>  <units>  (2) 
nan

>  <uo_units>  (2) 
UO_0000065

>  <upper_value>  (2) 
nan

>  <value>  (2) 
4.0

>  <SMILES>  (2) 
NC1=NC(=O)Nc2sccc12

>  <NAME>  (2) 
CHEMBL2007097

>  <FILTER>  (2) 
OK

>  <MW>  (2) 
167.193

>  <LogP>  (2) 
0.5668

>  <HBD>  (2) 
2

>  <HBA>  (2) 
4

>  <TPSA>  (2) 
71.77

>  <Label>  (2) 
CAMK2A

$$$$
CHEMBL1980407
     RDKit          2D

 33 37  0  0  0  0  0  0  0  0999 V2000
   -0.7500   -9.0933    0.0000 N   0  0  0  0  0  0  0  0  0  0  0  0
   -1.5000   -7.7942    0.0000 C   0  0  0  0  0  0  0  0  0  0  0  0
   -0.7500   -6.4952    0.0000 C   0  0  0  0  0  0  0  0  0  0  0  0
    0.7500   -6.4952    0.0000 O   0  0  0  0  0  0  0  0  0  0  0  0
    1.5000   -5.1962    0.0000 C   0  0  0  0  0  0  0  0  0  0  0  0
    3.0000   -5.1962    0.0000 C   0  0  0  0  0  0  0  0  0  0  0  0
    3.7500   -3.8971    0.0000 N   0  0  0  0  0  0  0  0  0  0  0  0
    3.0000   -2.5981    0.0000 C   0  0  0  0  0  0  0  0  0  0  0  0
    1.5000   -2.5981    0.0000 C   0  0  0  0  0  0  0  0  0  0  0  0
    0.7500   -3.8971    0.0000 C   0  0  0  0  0  0  0  0  0  0  0  0
    0.7500   -1.2990    0.0000 C   0  0  0  0  0  0  0  0  0  0  0  0
    1.5000    0.0000    0.0000 C   0  0  0  0  0  0  0  0  0  0  0  0
    0.7500    1.2990    0.0000 C   0  0  0  0  0  0  0  0  0  0  0  0
   -0.7500    1.2990    0.0000 C   0  0  0  0  0  0  0  0  0  0  0  0
   -1.7537    2.4138    0.0000 N   0  0  0  0  0  0  0  0  0  0  0  0
   -3.1240    1.8037    0.0000 C   0  0  0  0  0  0  0  0  0  0  0  0
   -4.4231    2.5537    0.0000 O   0  0  0  0  0  0  0  0  0  0  0  0
   -2.9672    0.3119    0.0000 C   0  0  0  0  0  0  0  0  0  0  0  0
   -4.0819   -0.6918    0.0000 C   0  0  0  0  0  0  0  0  0  0  0  0
   -5.5085   -0.2283    0.0000 C   0  0  0  0  0  0  0  0  0  0  0  0
   -6.7220   -1.1100    0.0000 C   0  0  0  0  0  0  0  0  0  0  0  0
   -7.9356   -0.2283    0.0000 C   0  0  0  0  0  0  0  0  0  0  0  0
   -7.4720    1.1983    0.0000 C   0  0  0  0  0  0  0  0  0  0  0  0
   -5.9720    1.1983    0.0000 N   0  0  0  0  0  0  0  0  0  0  0  0
   -1.5000    0.0000    0.0000 C   0  0  0  0  0  0  0  0  0  0  0  0
   -0.7500   -1.2990    0.0000 C   0  0  0  0  0  0  0  0  0  0  0  0
   -3.0000   -7.7942    0.0000 C   0  0  0  0  0  0  0  0  0  0  0  0
   -3.7500   -9.0933    0.0000 C   0  0  0  0  0  0  0  0  0  0  0  0
   -5.2500   -9.0933    0.0000 C   0  0  0  0  0  0  0  0  0  0  0  0
   -6.0000  -10.3923    0.0000 C   0  0  0  0  0  0  0  0  0  0  0  0
   -5.2500  -11.6913    0.0000 C   0  0  0  0  0  0  0  0  0  0  0  0
   -3.7500  -11.6913    0.0000 C   0  0  0  0  0  0  0  0  0  0  0  0
   -3.0000  -10.3923    0.0000 C   0  0  0  0  0  0  0  0  0  0  0  0
  1  2  1  0
  2  3  1  0
  3  4  1  0
  4  5  1  0
  5  6  2  0
  6  7  1  0
  7  8  2  0
  8  9  1  0
  9 10  2  0
  9 11  1  0
 11 12  2  0
 12 13  1  0
 13 14  2  0
 14 15  1  0
 15 16  1  0
 16 17  2  0
 16 18  1  0
 18 19  2  3
 19 20  1  0
 20 21  2  0
 21 22  1  0
 22 23  2  0
 23 24  1  0
 18 25  1  0
 25 26  2  0
  2 27  1  0
 27 28  1  0
 28 29  2  0
 29 30  1  0
 30 31  2  0
 31 32  1  0
 32 33  2  0
 10  5  1  0
 26 11  1  0
 25 14  1  0
 24 20  1  0
 33 28  1  0
M  END
>  <activity_comment>  (3) 
active

>  <activity_id>  (3) 
9511284

>  <activity_properties>  (3) 
[]

>  <assay_chembl_id>  (3) 
CHEMBL1964111

>  <assay_description>  (3) 
PUBCHEM_BIOASSAY: Navigating the Kinome. (Class of assay: other) Panel member name: CAMK2A

>  <assay_type>  (3) 
F

>  <bao_endpoint>  (3) 
BAO_0000192

>  <bao_format>  (3) 
BAO_0000019

>  <bao_label>  (3) 
assay format

>  <canonical_smiles>  (3) 
NC(COc1cncc(c1)c2ccc3NC(=O)C(=Cc4ccc[nH]4)c3c2)Cc5ccccc5

>  <data_validity_comment>  (3) 
nan

>  <data_validity_description>  (3) 
nan

>  <document_chembl_id>  (3) 
CHEMBL1201862

>  <document_journal>  (3) 
nan

>  <document_year>  (3) 
nan

>  <ligand_efficiency>  (3) 
nan

>  <molecule_pref_name>  (3) 
nan

>  <parent_molecule_chembl_id>  (3) 
CHEMBL1980407

>  <pchembl_value>  (3) 
7.2

>  <potential_duplicate>  (3) 
False

>  <qudt_units>  (3) 
http://www.openphacts.org/units/Nanomolar

>  <record_id>  (3) 
1584344

>  <relation>  (3) 
=

>  <src_id>  (3) 
7

>  <standard_flag>  (3) 
True

>  <standard_relation>  (3) 
=

>  <standard_text_value>  (3) 
nan

>  <standard_type>  (3) 
Ki

>  <standard_units>  (3) 
nM

>  <standard_upper_value>  (3) 
nan

>  <standard_value>  (3) 
63.1

>  <target_chembl_id>  (3) 
CHEMBL4147

>  <target_organism>  (3) 
Homo sapiens

>  <target_pref_name>  (3) 
CaM kinase II alpha

>  <target_tax_id>  (3) 
9606

>  <text_value>  (3) 
nan

>  <toid>  (3) 
nan

>  <type>  (3) 
pKi

>  <units>  (3) 
nan

>  <uo_units>  (3) 
UO_0000065

>  <upper_value>  (3) 
nan

>  <value>  (3) 
7.2

>  <SMILES>  (3) 
NC(COc1cncc(c1)c2ccc3NC(=O)C(=Cc4ccc[nH]4)c3c2)Cc5ccccc5

>  <NAME>  (3) 
CHEMBL1980407

>  <FILTER>  (3) 
OK

>  <MW>  (3) 
436.515

>  <LogP>  (3) 
4.5182

>  <HBD>  (3) 
3

>  <HBA>  (3) 
4

>  <TPSA>  (3) 
93.03

>  <Label>  (3) 
CAMK2A

$$$$
CHEMBL1975927
     RDKit          2D

 30 33  0  0  0  0  0  0  0  0999 V2000
   -8.0346   -3.5760    0.0000 C   0  0  0  0  0  0  0  0  0  0  0  0
   -6.9199   -4.5797    0.0000 O   0  0  0  0  0  0  0  0  0  0  0  0
   -5.4933   -4.1162    0.0000 C   0  0  0  0  0  0  0  0  0  0  0  0
   -5.1814   -2.6490    0.0000 C   0  0  0  0  0  0  0  0  0  0  0  0
   -3.7548   -2.1855    0.0000 C   0  0  0  0  0  0  0  0  0  0  0  0
   -2.6401   -3.1891    0.0000 C   0  0  0  0  0  0  0  0  0  0  0  0
   -2.9520   -4.6564    0.0000 C   0  0  0  0  0  0  0  0  0  0  0  0
   -4.3786   -5.1199    0.0000 C   0  0  0  0  0  0  0  0  0  0  0  0
   -1.2135   -2.7256    0.0000 N   0  0  0  0  0  0  0  0  0  0  0  0
    0.0000   -3.6073    0.0000 C   0  0  0  0  0  0  0  0  0  0  0  0
    1.2135   -2.7256    0.0000 C   0  0  0  0  0  0  0  0  0  0  0  0
    0.7500   -1.2990    0.0000 C   0  0  0  0  0  0  0  0  0  0  0  0
    1.5000    0.0000    0.0000 C   0  0  0  0  0  0  0  0  0  0  0  0
    0.7500    1.2990    0.0000 N   0  0  0  0  0  0  0  0  0  0  0  0
   -0.7500    1.2990    0.0000 C   0  0  0  0  0  0  0  0  0  0  0  0
   -1.5000    2.5981    0.0000 N   0  0  0  0  0  0  0  0  0  0  0  0
   -0.7500    3.8971    0.0000 C   0  0  0  0  0  0  0  0  0  0  0  0
    0.7500    3.8971    0.0000 C   0  0  0  0  0  0  0  0  0  0  0  0
    1.5000    5.1962    0.0000 C   0  0  0  0  0  0  0  0  0  0  0  0
    3.0000    5.1962    0.0000 O   0  0  0  0  0  0  0  0  0  0  0  0
    3.7500    3.8971    0.0000 C   0  0  0  0  0  0  0  0  0  0  0  0
    0.7500    6.4952    0.0000 C   0  0  0  0  0  0  0  0  0  0  0  0
    1.5000    7.7942    0.0000 O   0  0  0  0  0  0  0  0  0  0  0  0
    0.7500    9.0933    0.0000 C   0  0  0  0  0  0  0  0  0  0  0  0
   -0.7500    6.4952    0.0000 C   0  0  0  0  0  0  0  0  0  0  0  0
   -1.5000    7.7942    0.0000 O   0  0  0  0  0  0  0  0  0  0  0  0
   -3.0000    7.7942    0.0000 C   0  0  0  0  0  0  0  0  0  0  0  0
   -1.5000    5.1962    0.0000 C   0  0  0  0  0  0  0  0  0  0  0  0
   -1.5000    0.0000    0.0000 N   0  0  0  0  0  0  0  0  0  0  0  0
   -0.7500   -1.2990    0.0000 C   0  0  0  0  0  0  0  0  0  0  0  0
  1  2  1  0
  2  3  1  0
  3  4  2  0
  4  5  1  0
  5  6  2  0
  6  7  1  0
  7  8  2  0
  6  9  1  0
  9 10  1  0
 10 11  2  0
 11 12  1  0
 12 13  2  0
 13 14  1  0
 14 15  2  0
 15 16  1  0
 16 17  1  0
 17 18  2  0
 18 19  1  0
 19 20  1  0
 20 21  1  0
 19 22  2  0
 22 23  1  0
 23 24  1  0
 22 25  1  0
 25 26  1  0
 26 27  1  0
 25 28  2  0
 15 29  1  0
 29 30  2  0
  8  3  1  0
 30  9  1  0
 30 12  1  0
 28 17  1  0
M  END
>  <activity_comment>  (4) 
active

>  <activity_id>  (4) 
9511291

>  <activity_properties>  (4) 
[]

>  <assay_chembl_id>  (4) 
CHEMBL1964111

>  <assay_description>  (4) 
PUBCHEM_BIOASSAY: Navigating the Kinome. (Class of assay: other) Panel member name: CAMK2A

>  <assay_type>  (4) 
F

>  <bao_endpoint>  (4) 
BAO_0000192

>  <bao_format>  (4) 
BAO_0000019

>  <bao_label>  (4) 
assay format

>  <canonical_smiles>  (4) 
COc1ccc(cc1)n2ccc3cnc(Nc4cc(OC)c(OC)c(OC)c4)nc23

>  <data_validity_comment>  (4) 
nan

>  <data_validity_description>  (4) 
nan

>  <document_chembl_id>  (4) 
CHEMBL1201862

>  <document_journal>  (4) 
nan

>  <document_year>  (4) 
nan

>  <ligand_efficiency>  (4) 
nan

>  <molecule_pref_name>  (4) 
nan

>  <parent_molecule_chembl_id>  (4) 
CHEMBL1975927

>  <pchembl_value>  (4) 
5.3

>  <potential_duplicate>  (4) 
False

>  <qudt_units>  (4) 
http://www.openphacts.org/units/Nanomolar

>  <record_id>  (4) 
1584526

>  <relation>  (4) 
=

>  <src_id>  (4) 
7

>  <standard_flag>  (4) 
True

>  <standard_relation>  (4) 
=

>  <standard_text_value>  (4) 
nan

>  <standard_type>  (4) 
Ki

>  <standard_units>  (4) 
nM

>  <standard_upper_value>  (4) 
nan

>  <standard_value>  (4) 
5011.87

>  <target_chembl_id>  (4) 
CHEMBL4147

>  <target_organism>  (4) 
Homo sapiens

>  <target_pref_name>  (4) 
CaM kinase II alpha

>  <target_tax_id>  (4) 
9606

>  <text_value>  (4) 
nan

>  <toid>  (4) 
nan

>  <type>  (4) 
pKi

>  <units>  (4) 
nan

>  <uo_units>  (4) 
UO_0000065

>  <upper_value>  (4) 
nan

>  <value>  (4) 
5.3

>  <SMILES>  (4) 
COc1ccc(cc1)n2ccc3cnc(Nc4cc(OC)c(OC)c(OC)c4)nc23

>  <NAME>  (4) 
CHEMBL1975927

>  <FILTER>  (4) 
OK

>  <MW>  (4) 
406.442

>  <LogP>  (4) 
4.1985

>  <HBD>  (4) 
1

>  <HBA>  (4) 
8

>  <TPSA>  (4) 
79.66

>  <Label>  (4) 
CAMK2A

$$$$
CHEMBL1986943
     RDKit          2D

 24 27  0  0  0  0  0  0  0  0999 V2000
   -5.0487    4.2236    0.0000 O   0  0  0  0  0  0  0  0  0  0  0  0
   -5.3605    2.7564    0.0000 C   0  0  0  0  0  0  0  0  0  0  0  0
   -4.2458    1.7527    0.0000 C   0  0  0  0  0  0  0  0  0  0  0  0
   -4.5577    0.2855    0.0000 C   0  0  0  0  0  0  0  0  0  0  0  0
   -5.9843   -0.1781    0.0000 C   0  0  0  0  0  0  0  0  0  0  0  0
   -7.0990    0.8256    0.0000 C   0  0  0  0  0  0  0  0  0  0  0  0
   -6.7871    2.2929    0.0000 C   0  0  0  0  0  0  0  0  0  0  0  0
   -6.2961   -1.6453    0.0000 N   0  0  0  0  0  0  0  0  0  0  0  0
   -5.1814   -2.6490    0.0000 C   0  0  0  0  0  0  0  0  0  0  0  0
   -5.4933   -4.1162    0.0000 N   0  0  0  0  0  0  0  0  0  0  0  0
   -4.3786   -5.1199    0.0000 C   0  0  0  0  0  0  0  0  0  0  0  0
   -4.6904   -6.5871    0.0000 Cl  0  0  0  0  0  0  0  0  0  0  0  0
   -2.9520   -4.6564    0.0000 C   0  0  0  0  0  0  0  0  0  0  0  0
   -2.6401   -3.1891    0.0000 C   0  0  0  0  0  0  0  0  0  0  0  0
   -3.7548   -2.1855    0.0000 N   0  0  0  0  0  0  0  0  0  0  0  0
   -1.2135   -2.7256    0.0000 C   0  0  0  0  0  0  0  0  0  0  0  0
    0.0000   -3.6073    0.0000 C   0  0  0  0  0  0  0  0  0  0  0  0
    1.2135   -2.7256    0.0000 N   0  0  0  0  0  0  0  0  0  0  0  0
    0.7500   -1.2990    0.0000 C   0  0  0  0  0  0  0  0  0  0  0  0
    1.5000    0.0000    0.0000 N   0  0  0  0  0  0  0  0  0  0  0  0
    0.7500    1.2990    0.0000 C   0  0  0  0  0  0  0  0  0  0  0  0
   -0.7500    1.2990    0.0000 C   0  0  0  0  0  0  0  0  0  0  0  0
   -1.5000    0.0000    0.0000 C   0  0  0  0  0  0  0  0  0  0  0  0
   -0.7500   -1.2990    0.0000 C   0  0  0  0  0  0  0  0  0  0  0  0
  1  2  1  0
  2  3  1  0
  3  4  1  0
  4  5  1  0
  5  6  1  0
  6  7  1  0
  5  8  1  0
  8  9  1  0
  9 10  2  0
 10 11  1  0
 11 12  1  0
 11 13  2  0
 13 14  1  0
 14 15  2  0
 14 16  1  0
 16 17  2  0
 17 18  1  0
 18 19  1  0
 19 20  2  0
 20 21  1  0
 21 22  2  0
 22 23  1  0
 23 24  2  0
  7  2  1  0
 15  9  1  0
 24 16  1  0
 24 19  1  0
M  END
>  <activity_comment>  (5) 
active

>  <activity_id>  (5) 
9511292

>  <activity_properties>  (5) 
[]

>  <assay_chembl_id>  (5) 
CHEMBL1964111

>  <assay_description>  (5) 
PUBCHEM_BIOASSAY: Navigating the Kinome. (Class of assay: other) Panel member name: CAMK2A

>  <assay_type>  (5) 
F

>  <bao_endpoint>  (5) 
BAO_0000192

>  <bao_format>  (5) 
BAO_0000019

>  <bao_label>  (5) 
assay format

>  <canonical_smiles>  (5) 
OC1CCC(CC1)Nc2nc(Cl)cc(n2)c3c[nH]c4ncccc34

>  <data_validity_comment>  (5) 
nan

>  <data_validity_description>  (5) 
nan

>  <document_chembl_id>  (5) 
CHEMBL1201862

>  <document_journal>  (5) 
nan

>  <document_year>  (5) 
nan

>  <ligand_efficiency>  (5) 
nan

>  <molecule_pref_name>  (5) 
nan

>  <parent_molecule_chembl_id>  (5) 
CHEMBL1986943

>  <pchembl_value>  (5) 
6.8

>  <potential_duplicate>  (5) 
False

>  <qudt_units>  (5) 
http://www.openphacts.org/units/Nanomolar

>  <record_id>  (5) 
1584071

>  <relation>  (5) 
=

>  <src_id>  (5) 
7

>  <standard_flag>  (5) 
True

>  <standard_relation>  (5) 
=

>  <standard_text_value>  (5) 
nan

>  <standard_type>  (5) 
Ki

>  <standard_units>  (5) 
nM

>  <standard_upper_value>  (5) 
nan

>  <standard_value>  (5) 
158.49

>  <target_chembl_id>  (5) 
CHEMBL4147

>  <target_organism>  (5) 
Homo sapiens

>  <target_pref_name>  (5) 
CaM kinase II alpha

>  <target_tax_id>  (5) 
9606

>  <text_value>  (5) 
nan

>  <toid>  (5) 
nan

>  <type>  (5) 
pKi

>  <units>  (5) 
nan

>  <uo_units>  (5) 
UO_0000065

>  <upper_value>  (5) 
nan

>  <value>  (5) 
6.8

>  <SMILES>  (5) 
OC1CCC(CC1)Nc2nc(Cl)cc(n2)c3c[nH]c4ncccc34

>  <NAME>  (5) 
CHEMBL1986943

>  <FILTER>  (5) 
OK

>  <MW>  (5) 
343.818

>  <LogP>  (5) 
3.3887

>  <HBD>  (5) 
3

>  <HBA>  (5) 
5

>  <TPSA>  (5) 
86.72

>  <Label>  (5) 
CAMK2A

$$$$
CHEMBL1977138
     RDKit          2D

 27 30  0  0  0  0  0  0  0  0999 V2000
   -4.5577    0.2855    0.0000 C   0  0  0  0  0  0  0  0  0  0  0  0
   -5.9843   -0.1781    0.0000 C   0  0  0  0  0  0  0  0  0  0  0  0
   -6.2961   -1.6453    0.0000 N   0  0  0  0  0  0  0  0  0  0  0  0
   -5.1814   -2.6490    0.0000 C   0  0  0  0  0  0  0  0  0  0  0  0
   -5.4933   -4.1162    0.0000 C   0  0  0  0  0  0  0  0  0  0  0  0
   -4.3786   -5.1199    0.0000 N   0  0  0  0  0  0  0  0  0  0  0  0
   -2.9520   -4.6564    0.0000 C   0  0  0  0  0  0  0  0  0  0  0  0
   -2.6401   -3.1891    0.0000 C   0  0  0  0  0  0  0  0  0  0  0  0
   -3.7548   -2.1855    0.0000 N   0  0  0  0  0  0  0  0  0  0  0  0
   -1.2135   -2.7256    0.0000 N   0  0  0  0  0  0  0  0  0  0  0  0
    0.0000   -3.6073    0.0000 C   0  0  0  0  0  0  0  0  0  0  0  0
    1.2135   -2.7256    0.0000 N   0  0  0  0  0  0  0  0  0  0  0  0
    0.7500   -1.2990    0.0000 C   0  0  0  0  0  0  0  0  0  0  0  0
    1.5000    0.0000    0.0000 C   0  0  0  0  0  0  0  0  0  0  0  0
    0.7500    1.2990    0.0000 C   0  0  0  0  0  0  0  0  0  0  0  0
   -0.7500    1.2990    0.0000 C   0  0  0  0  0  0  0  0  0  0  0  0
   -1.5000    0.0000    0.0000 C   0  0  0  0  0  0  0  0  0  0  0  0
   -0.7500   -1.2990    0.0000 C   0  0  0  0  0  0  0  0  0  0  0  0
   -1.5000    2.5981    0.0000 C   0  0  0  0  0  0  0  0  0  0  0  0
   -2.2500    3.8971    0.0000 N   0  0  0  0  0  0  0  0  0  0  0  0
   -7.0990    0.8256    0.0000 C   0  0  0  0  0  0  0  0  0  0  0  0
   -8.5256    0.3621    0.0000 C   0  0  0  0  0  0  0  0  0  0  0  0
   -9.6403    1.3658    0.0000 C   0  0  0  0  0  0  0  0  0  0  0  0
   -9.3284    2.8330    0.0000 C   0  0  0  0  0  0  0  0  0  0  0  0
   -7.9018    3.2966    0.0000 C   0  0  0  0  0  0  0  0  0  0  0  0
   -6.7871    2.2929    0.0000 C   0  0  0  0  0  0  0  0  0  0  0  0
   -5.3605    2.7564    0.0000 F   0  0  0  0  0  0  0  0  0  0  0  0
  1  2  1  0
  2  3  1  0
  3  4  1  0
  4  5  2  0
  5  6  1  0
  6  7  2  0
  7  8  1  0
  8  9  2  0
  8 10  1  0
 10 11  1  0
 11 12  2  0
 12 13  1  0
 13 14  2  0
 14 15  1  0
 15 16  2  0
 16 17  1  0
 17 18  2  0
 16 19  1  0
 19 20  3  0
  2 21  1  0
 21 22  2  0
 22 23  1  0
 23 24  2  0
 24 25  1  0
 25 26  2  0
 26 27  1  0
  9  4  1  0
 18 10  1  0
 18 13  1  0
 26 21  1  0
M  END
>  <activity_comment>  (6) 
active

>  <activity_id>  (6) 
9511293

>  <activity_properties>  (6) 
[]

>  <assay_chembl_id>  (6) 
CHEMBL1964111

>  <assay_description>  (6) 
PUBCHEM_BIOASSAY: Navigating the Kinome. (Class of assay: other) Panel member name: CAMK2A

>  <assay_type>  (6) 
F

>  <bao_endpoint>  (6) 
BAO_0000192

>  <bao_format>  (6) 
BAO_0000019

>  <bao_label>  (6) 
assay format

>  <canonical_smiles>  (6) 
CC(Nc1cncc(n1)n2cnc3ccc(cc23)C#N)c4ccccc4F

>  <data_validity_comment>  (6) 
nan

>  <data_validity_description>  (6) 
nan

>  <document_chembl_id>  (6) 
CHEMBL1201862

>  <document_journal>  (6) 
nan

>  <document_year>  (6) 
nan

>  <ligand_efficiency>  (6) 
nan

>  <molecule_pref_name>  (6) 
nan

>  <parent_molecule_chembl_id>  (6) 
CHEMBL1977138

>  <pchembl_value>  (6) 
6.6

>  <potential_duplicate>  (6) 
False

>  <qudt_units>  (6) 
http://www.openphacts.org/units/Nanomolar

>  <record_id>  (6) 
1584700

>  <relation>  (6) 
=

>  <src_id>  (6) 
7

>  <standard_flag>  (6) 
True

>  <standard_relation>  (6) 
=

>  <standard_text_value>  (6) 
nan

>  <standard_type>  (6) 
Ki

>  <standard_units>  (6) 
nM

>  <standard_upper_value>  (6) 
nan

>  <standard_value>  (6) 
251.19

>  <target_chembl_id>  (6) 
CHEMBL4147

>  <target_organism>  (6) 
Homo sapiens

>  <target_pref_name>  (6) 
CaM kinase II alpha

>  <target_tax_id>  (6) 
9606

>  <text_value>  (6) 
nan

>  <toid>  (6) 
nan

>  <type>  (6) 
pKi

>  <units>  (6) 
nan

>  <uo_units>  (6) 
UO_0000065

>  <upper_value>  (6) 
nan

>  <value>  (6) 
6.6

>  <SMILES>  (6) 
CC(Nc1cncc(n1)n2cnc3ccc(cc23)C#N)c4ccccc4F

>  <NAME>  (6) 
CHEMBL1977138

>  <FILTER>  (6) 
OK

>  <MW>  (6) 
358.38

>  <LogP>  (6) 
3.99938

>  <HBD>  (6) 
1

>  <HBA>  (6) 
6

>  <TPSA>  (6) 
79.42

>  <Label>  (6) 
CAMK2A

$$$$
CHEMBL1980329
     RDKit          2D

 23 26  0  0  0  0  0  0  0  0999 V2000
    3.7500   -6.4952    0.0000 O   0  0  0  0  0  0  0  0  0  0  0  0
    3.0000   -5.1962    0.0000 C   0  0  0  0  0  0  0  0  0  0  0  0
    1.5000   -5.1962    0.0000 C   0  0  0  0  0  0  0  0  0  0  0  0
    0.7500   -3.8971    0.0000 C   0  0  0  0  0  0  0  0  0  0  0  0
    1.5000   -2.5981    0.0000 C   0  0  0  0  0  0  0  0  0  0  0  0
    3.0000   -2.5981    0.0000 C   0  0  0  0  0  0  0  0  0  0  0  0
    3.7500   -3.8971    0.0000 C   0  0  0  0  0  0  0  0  0  0  0  0
    0.7500   -1.2990    0.0000 C   0  0  0  0  0  0  0  0  0  0  0  0
    1.5000    0.0000    0.0000 C   0  0  0  0  0  0  0  0  0  0  0  0
    0.7500    1.2990    0.0000 C   0  0  0  0  0  0  0  0  0  0  0  0
   -0.7500    1.2990    0.0000 C   0  0  0  0  0  0  0  0  0  0  0  0
   -1.7537    2.4138    0.0000 C   0  0  0  0  0  0  0  0  0  0  0  0
   -1.4418    3.8810    0.0000 C   0  0  0  0  0  0  0  0  0  0  0  0
   -2.5565    4.8847    0.0000 C   0  0  0  0  0  0  0  0  0  0  0  0
   -4.0238    4.5728    0.0000 C   0  0  0  0  0  0  0  0  0  0  0  0
   -4.7738    5.8718    0.0000 C   0  0  0  0  0  0  0  0  0  0  0  0
   -3.7701    6.9866    0.0000 C   0  0  0  0  0  0  0  0  0  0  0  0
   -2.3998    6.3765    0.0000 N   0  0  0  0  0  0  0  0  0  0  0  0
   -3.1240    1.8037    0.0000 C   0  0  0  0  0  0  0  0  0  0  0  0
   -4.4231    2.5537    0.0000 O   0  0  0  0  0  0  0  0  0  0  0  0
   -2.9672    0.3119    0.0000 N   0  0  0  0  0  0  0  0  0  0  0  0
   -1.5000    0.0000    0.0000 C   0  0  0  0  0  0  0  0  0  0  0  0
   -0.7500   -1.2990    0.0000 C   0  0  0  0  0  0  0  0  0  0  0  0
  1  2  1  0
  2  3  2  0
  3  4  1  0
  4  5  2  0
  5  6  1  0
  6  7  2  0
  5  8  1  0
  8  9  2  0
  9 10  1  0
 10 11  2  0
 11 12  1  0
 12 13  2  3
 13 14  1  0
 14 15  2  0
 15 16  1  0
 16 17  2  0
 17 18  1  0
 12 19  1  0
 19 20  2  0
 19 21  1  0
 21 22  1  0
 22 23  2  0
  7  2  1  0
 23  8  1  0
 22 11  1  0
 18 14  1  0
M  END
>  <activity_comment>  (7) 
active

>  <activity_id>  (7) 
9511295

>  <activity_properties>  (7) 
[]

>  <assay_chembl_id>  (7) 
CHEMBL1964111

>  <assay_description>  (7) 
PUBCHEM_BIOASSAY: Navigating the Kinome. (Class of assay: other) Panel member name: CAMK2A

>  <assay_type>  (7) 
F

>  <bao_endpoint>  (7) 
BAO_0000192

>  <bao_format>  (7) 
BAO_0000019

>  <bao_label>  (7) 
assay format

>  <canonical_smiles>  (7) 
Oc1ccc(cc1)c2ccc3C(=Cc4ccc[nH]4)C(=O)Nc3c2

>  <data_validity_comment>  (7) 
nan

>  <data_validity_description>  (7) 
nan

>  <document_chembl_id>  (7) 
CHEMBL1201862

>  <document_journal>  (7) 
nan

>  <document_year>  (7) 
nan

>  <ligand_efficiency>  (7) 
nan

>  <molecule_pref_name>  (7) 
nan

>  <parent_molecule_chembl_id>  (7) 
CHEMBL1980329

>  <pchembl_value>  (7) 
5.6

>  <potential_duplicate>  (7) 
False

>  <qudt_units>  (7) 
http://www.openphacts.org/units/Nanomolar

>  <record_id>  (7) 
1584993

>  <relation>  (7) 
=

>  <src_id>  (7) 
7

>  <standard_flag>  (7) 
True

>  <standard_relation>  (7) 
=

>  <standard_text_value>  (7) 
nan

>  <standard_type>  (7) 
Ki

>  <standard_units>  (7) 
nM

>  <standard_upper_value>  (7) 
nan

>  <standard_value>  (7) 
2511.89

>  <target_chembl_id>  (7) 
CHEMBL4147

>  <target_organism>  (7) 
Homo sapiens

>  <target_pref_name>  (7) 
CaM kinase II alpha

>  <target_tax_id>  (7) 
9606

>  <text_value>  (7) 
nan

>  <toid>  (7) 
nan

>  <type>  (7) 
pKi

>  <units>  (7) 
nan

>  <uo_units>  (7) 
UO_0000065

>  <upper_value>  (7) 
nan

>  <value>  (7) 
5.6

>  <SMILES>  (7) 
Oc1ccc(cc1)c2ccc3C(=Cc4ccc[nH]4)C(=O)Nc3c2

>  <NAME>  (7) 
CHEMBL1980329

>  <FILTER>  (7) 
OK

>  <MW>  (7) 
302.333

>  <LogP>  (7) 
3.88

>  <HBD>  (7) 
3

>  <HBA>  (7) 
2

>  <TPSA>  (7) 
65.12

>  <Label>  (7) 
CAMK2A

$$$$
CHEMBL2004515
     RDKit          2D

 18 21  0  0  0  0  0  0  0  0999 V2000
    1.2760    0.0000    0.0000 C   0  0  0  0  0  0  0  0  0  0  0  0
    0.3943    1.2135    0.0000 O   0  0  0  0  0  0  0  0  0  0  0  0
   -1.0323    0.7500    0.0000 C   0  0  0  0  0  0  0  0  0  0  0  0
   -2.3313    1.5000    0.0000 C   0  0  0  0  0  0  0  0  0  0  0  0
   -3.6304    0.7500    0.0000 C   0  0  0  0  0  0  0  0  0  0  0  0
   -3.6304   -0.7500    0.0000 C   0  0  0  0  0  0  0  0  0  0  0  0
   -2.3313   -1.5000    0.0000 C   0  0  0  0  0  0  0  0  0  0  0  0
   -1.0323   -0.7500    0.0000 C   0  0  0  0  0  0  0  0  0  0  0  0
    0.3943   -1.2135    0.0000 O   0  0  0  0  0  0  0  0  0  0  0  0
   -4.9294   -1.5000    0.0000 C   0  0  0  0  0  0  0  0  0  0  0  0
   -4.9294   -3.0000    0.0000 N   0  0  0  0  0  0  0  0  0  0  0  0
   -6.2284   -3.7500    0.0000 C   0  0  0  0  0  0  0  0  0  0  0  0
   -7.5275   -3.0000    0.0000 N   0  0  0  0  0  0  0  0  0  0  0  0
   -7.5275   -1.5000    0.0000 C   0  0  0  0  0  0  0  0  0  0  0  0
   -8.6422   -0.4963    0.0000 N   0  0  0  0  0  0  0  0  0  0  0  0
   -8.0321    0.8740    0.0000 C   0  0  0  0  0  0  0  0  0  0  0  0
   -6.5403    0.7172    0.0000 C   0  0  0  0  0  0  0  0  0  0  0  0
   -6.2284   -0.7500    0.0000 C   0  0  0  0  0  0  0  0  0  0  0  0
  1  2  1  0
  2  3  1  0
  3  4  2  0
  4  5  1  0
  5  6  2  0
  6  7  1  0
  7  8  2  0
  8  9  1  0
  6 10  1  0
 10 11  2  0
 11 12  1  0
 12 13  2  0
 13 14  1  0
 14 15  1  0
 15 16  1  0
 16 17  2  0
 17 18  1  0
  9  1  1  0
  8  3  1  0
 18 10  1  0
 18 14  2  0
M  END
>  <activity_comment>  (8) 
active

>  <activity_id>  (8) 
9511296

>  <activity_properties>  (8) 
[]

>  <assay_chembl_id>  (8) 
CHEMBL1964111

>  <assay_description>  (8) 
PUBCHEM_BIOASSAY: Navigating the Kinome. (Class of assay: other) Panel member name: CAMK2A

>  <assay_type>  (8) 
F

>  <bao_endpoint>  (8) 
BAO_0000192

>  <bao_format>  (8) 
BAO_0000019

>  <bao_label>  (8) 
assay format

>  <canonical_smiles>  (8) 
C1Oc2ccc(cc2O1)c3ncnc4[nH]ccc34

>  <data_validity_comment>  (8) 
nan

>  <data_validity_description>  (8) 
nan

>  <document_chembl_id>  (8) 
CHEMBL1201862

>  <document_journal>  (8) 
nan

>  <document_year>  (8) 
nan

>  <ligand_efficiency>  (8) 
nan

>  <molecule_pref_name>  (8) 
nan

>  <parent_molecule_chembl_id>  (8) 
CHEMBL2004515

>  <pchembl_value>  (8) 
5.0

>  <potential_duplicate>  (8) 
False

>  <qudt_units>  (8) 
http://www.openphacts.org/units/Nanomolar

>  <record_id>  (8) 
1584971

>  <relation>  (8) 
=

>  <src_id>  (8) 
7

>  <standard_flag>  (8) 
True

>  <standard_relation>  (8) 
=

>  <standard_text_value>  (8) 
nan

>  <standard_type>  (8) 
Ki

>  <standard_units>  (8) 
nM

>  <standard_upper_value>  (8) 
nan

>  <standard_value>  (8) 
10000.0

>  <target_chembl_id>  (8) 
CHEMBL4147

>  <target_organism>  (8) 
Homo sapiens

>  <target_pref_name>  (8) 
CaM kinase II alpha

>  <target_tax_id>  (8) 
9606

>  <text_value>  (8) 
nan

>  <toid>  (8) 
nan

>  <type>  (8) 
pKi

>  <units>  (8) 
nan

>  <uo_units>  (8) 
UO_0000065

>  <upper_value>  (8) 
nan

>  <value>  (8) 
5.0

>  <SMILES>  (8) 
C1Oc2ccc(cc2O1)c3ncnc4[nH]ccc34

>  <NAME>  (8) 
CHEMBL2004515

>  <FILTER>  (8) 
OK

>  <MW>  (8) 
239.234

>  <LogP>  (8) 
2.3536

>  <HBD>  (8) 
1

>  <HBA>  (8) 
4

>  <TPSA>  (8) 
60.03

>  <Label>  (8) 
CAMK2A

$$$$
CHEMBL1991734
     RDKit          2D

 23 26  0  0  0  0  0  0  0  0999 V2000
    3.0000   -2.5981    0.0000 C   0  0  0  0  0  0  0  0  0  0  0  0
    1.5000   -2.5981    0.0000 N   0  0  0  0  0  0  0  0  0  0  0  0
    0.7500   -1.2990    0.0000 C   0  0  0  0  0  0  0  0  0  0  0  0
    1.5000    0.0000    0.0000 C   0  0  0  0  0  0  0  0  0  0  0  0
    0.7500    1.2990    0.0000 C   0  0  0  0  0  0  0  0  0  0  0  0
   -0.7500    1.2990    0.0000 C   0  0  0  0  0  0  0  0  0  0  0  0
   -1.5000    2.5981    0.0000 N   0  0  0  0  0  0  0  0  0  0  0  0
   -1.5000    0.0000    0.0000 C   0  0  0  0  0  0  0  0  0  0  0  0
   -0.7500   -1.2990    0.0000 C   0  0  0  0  0  0  0  0  0  0  0  0
   -1.5000   -2.5981    0.0000 C   0  0  0  0  0  0  0  0  0  0  0  0
   -3.0000   -2.5981    0.0000 C   0  0  0  0  0  0  0  0  0  0  0  0
   -3.7500   -1.2990    0.0000 C   0  0  0  0  0  0  0  0  0  0  0  0
   -5.2500   -1.2990    0.0000 C   0  0  0  0  0  0  0  0  0  0  0  0
   -6.0000   -2.5981    0.0000 C   0  0  0  0  0  0  0  0  0  0  0  0
   -5.2500   -3.8971    0.0000 C   0  0  0  0  0  0  0  0  0  0  0  0
   -3.7500   -3.8971    0.0000 C   0  0  0  0  0  0  0  0  0  0  0  0
   -0.7500   -3.8971    0.0000 C   0  0  0  0  0  0  0  0  0  0  0  0
   -1.5000   -5.1962    0.0000 C   0  0  0  0  0  0  0  0  0  0  0  0
   -0.7500   -6.4952    0.0000 C   0  0  0  0  0  0  0  0  0  0  0  0
   -1.5000   -7.7942    0.0000 N   0  0  0  0  0  0  0  0  0  0  0  0
    0.7500   -6.4952    0.0000 C   0  0  0  0  0  0  0  0  0  0  0  0
    1.5000   -5.1962    0.0000 C   0  0  0  0  0  0  0  0  0  0  0  0
    0.7500   -3.8971    0.0000 C   0  0  0  0  0  0  0  0  0  0  0  0
  1  2  1  0
  2  3  1  0
  3  4  2  0
  4  5  1  0
  5  6  2  0
  6  7  1  0
  6  8  1  0
  8  9  2  0
  9 10  1  0
 10 11  1  0
 11 12  2  0
 12 13  1  0
 13 14  2  0
 14 15  1  0
 15 16  2  0
 10 17  1  0
 17 18  2  0
 18 19  1  0
 19 20  1  0
 19 21  2  0
 21 22  1  0
 22 23  2  0
 23  2  1  0
  9  3  1  0
 16 11  1  0
 23 17  1  0
M  END
>  <activity_comment>  (9) 
active

>  <activity_id>  (9) 
9511299

>  <activity_properties>  (9) 
[]

>  <assay_chembl_id>  (9) 
CHEMBL1964111

>  <assay_description>  (9) 
PUBCHEM_BIOASSAY: Navigating the Kinome. (Class of assay: other) Panel member name: CAMK2A

>  <assay_type>  (9) 
F

>  <bao_endpoint>  (9) 
BAO_0000192

>  <bao_format>  (9) 
BAO_0000019

>  <bao_label>  (9) 
assay format

>  <canonical_smiles>  (9) 
CN1c2ccc(N)cc2C(c3ccccc3)c4cc(N)ccc14

>  <data_validity_comment>  (9) 
nan

>  <data_validity_description>  (9) 
nan

>  <document_chembl_id>  (9) 
CHEMBL1201862

>  <document_journal>  (9) 
nan

>  <document_year>  (9) 
nan

>  <ligand_efficiency>  (9) 
nan

>  <molecule_pref_name>  (9) 
nan

>  <parent_molecule_chembl_id>  (9) 
CHEMBL1991734

>  <pchembl_value>  (9) 
6.3

>  <potential_duplicate>  (9) 
False

>  <qudt_units>  (9) 
http://www.openphacts.org/units/Nanomolar

>  <record_id>  (9) 
1585250

>  <relation>  (9) 
=

>  <src_id>  (9) 
7

>  <standard_flag>  (9) 
True

>  <standard_relation>  (9) 
=

>  <standard_text_value>  (9) 
nan

>  <standard_type>  (9) 
Ki

>  <standard_units>  (9) 
nM

>  <standard_upper_value>  (9) 
nan

>  <standard_value>  (9) 
501.19

>  <target_chembl_id>  (9) 
CHEMBL4147

>  <target_organism>  (9) 
Homo sapiens

>  <target_pref_name>  (9) 
CaM kinase II alpha

>  <target_tax_id>  (9) 
9606

>  <text_value>  (9) 
nan

>  <toid>  (9) 
nan

>  <type>  (9) 
pKi

>  <units>  (9) 
nan

>  <uo_units>  (9) 
UO_0000065

>  <upper_value>  (9) 
nan

>  <value>  (9) 
6.3

>  <SMILES>  (9) 
CN1c2ccc(N)cc2C(c3ccccc3)c4cc(N)ccc14

>  <NAME>  (9) 
CHEMBL1991734

>  <FILTER>  (9) 
OK

>  <MW>  (9) 
301.393

>  <LogP>  (9) 
4.1125

>  <HBD>  (9) 
2

>  <HBA>  (9) 
3

>  <TPSA>  (9) 
55.28

>  <Label>  (9) 
CAMK2A

$$$$
CHEMBL1970290
     RDKit          2D

 39 42  0  0  0  0  0  0  0  0999 V2000
    6.9647   -2.5522    0.0000 C   0  0  0  0  0  0  0  0  0  0  0  0
    5.9610   -3.6669    0.0000 C   0  0  0  0  0  0  0  0  0  0  0  0
    4.4938   -3.3551    0.0000 N   0  0  0  0  0  0  0  0  0  0  0  0
    4.0302   -1.9285    0.0000 C   0  0  0  0  0  0  0  0  0  0  0  0
    5.0339   -0.8138    0.0000 C   0  0  0  0  0  0  0  0  0  0  0  0
    3.4901   -4.4698    0.0000 C   0  0  0  0  0  0  0  0  0  0  0  0
    2.0229   -4.1579    0.0000 C   0  0  0  0  0  0  0  0  0  0  0  0
    1.0192   -5.2726    0.0000 N   0  0  0  0  0  0  0  0  0  0  0  0
   -0.4481   -4.9608    0.0000 C   0  0  0  0  0  0  0  0  0  0  0  0
   -0.9116   -3.5342    0.0000 O   0  0  0  0  0  0  0  0  0  0  0  0
   -1.4518   -6.0755    0.0000 C   0  0  0  0  0  0  0  0  0  0  0  0
   -0.9882   -7.5021    0.0000 C   0  0  0  0  0  0  0  0  0  0  0  0
   -1.9919   -8.6168    0.0000 C   0  0  0  0  0  0  0  0  0  0  0  0
   -3.4591   -8.3049    0.0000 C   0  0  0  0  0  0  0  0  0  0  0  0
   -3.9227   -6.8783    0.0000 C   0  0  0  0  0  0  0  0  0  0  0  0
   -2.9190   -5.7636    0.0000 C   0  0  0  0  0  0  0  0  0  0  0  0
   -5.3899   -6.5665    0.0000 N   0  0  0  0  0  0  0  0  0  0  0  0
   -6.5046   -7.5702    0.0000 N   0  0  0  0  0  0  0  0  0  0  0  0
   -7.8037   -6.8202    0.0000 C   0  0  0  0  0  0  0  0  0  0  0  0
   -7.4918   -5.3529    0.0000 C   0  0  0  0  0  0  0  0  0  0  0  0
   -6.0000   -5.1962    0.0000 C   0  0  0  0  0  0  0  0  0  0  0  0
   -5.2500   -3.8971    0.0000 N   0  0  0  0  0  0  0  0  0  0  0  0
   -6.0000   -2.5981    0.0000 C   0  0  0  0  0  0  0  0  0  0  0  0
   -7.5000   -2.5981    0.0000 O   0  0  0  0  0  0  0  0  0  0  0  0
   -5.2500   -1.2990    0.0000 N   0  0  0  0  0  0  0  0  0  0  0  0
   -6.0000    0.0000    0.0000 C   0  0  0  0  0  0  0  0  0  0  0  0
   -7.5000    0.0000    0.0000 C   0  0  0  0  0  0  0  0  0  0  0  0
   -8.2500    1.2990    0.0000 C   0  0  0  0  0  0  0  0  0  0  0  0
   -7.5000    2.5981    0.0000 C   0  0  0  0  0  0  0  0  0  0  0  0
   -6.0000    2.5981    0.0000 C   0  0  0  0  0  0  0  0  0  0  0  0
   -5.2500    3.8971    0.0000 C   0  0  0  0  0  0  0  0  0  0  0  0
   -3.7500    3.8971    0.0000 C   0  0  0  0  0  0  0  0  0  0  0  0
   -3.0000    2.5981    0.0000 C   0  0  0  0  0  0  0  0  0  0  0  0
   -3.7500    1.2990    0.0000 C   0  0  0  0  0  0  0  0  0  0  0  0
   -5.2500    1.2990    0.0000 C   0  0  0  0  0  0  0  0  0  0  0  0
   -9.1740   -7.4303    0.0000 C   0  0  0  0  0  0  0  0  0  0  0  0
   -9.7841   -6.0600    0.0000 C   0  0  0  0  0  0  0  0  0  0  0  0
   -8.5639   -8.8006    0.0000 C   0  0  0  0  0  0  0  0  0  0  0  0
  -10.5443   -8.0404    0.0000 C   0  0  0  0  0  0  0  0  0  0  0  0
  1  2  1  0
  2  3  1  0
  3  4  1  0
  4  5  1  0
  3  6  1  0
  6  7  1  0
  7  8  1  0
  8  9  1  0
  9 10  2  0
  9 11  1  0
 11 12  2  0
 12 13  1  0
 13 14  2  0
 14 15  1  0
 15 16  2  0
 15 17  1  0
 17 18  1  0
 18 19  2  0
 19 20  1  0
 20 21  2  0
 21 22  1  0
 22 23  1  0
 23 24  2  0
 23 25  1  0
 25 26  1  0
 26 27  2  0
 27 28  1  0
 28 29  2  0
 29 30  1  0
 30 31  2  0
 31 32  1  0
 32 33  2  0
 33 34  1  0
 34 35  2  0
 19 36  1  0
 36 37  1  0
 36 38  1  0
 36 39  1  0
 16 11  1  0
 21 17  1  0
 35 26  1  0
 35 30  1  0
M  END
>  <activity_comment>  (10) 
active

>  <activity_id>  (10) 
9511308

>  <activity_properties>  (10) 
[]

>  <assay_chembl_id>  (10) 
CHEMBL1964111

>  <assay_description>  (10) 
PUBCHEM_BIOASSAY: Navigating the Kinome. (Class of assay: other) Panel member name: CAMK2A

>  <assay_type>  (10) 
F

>  <bao_endpoint>  (10) 
BAO_0000192

>  <bao_format>  (10) 
BAO_0000019

>  <bao_label>  (10) 
assay format

>  <canonical_smiles>  (10) 
CCN(CC)CCNC(=O)c1cccc(c1)n2nc(cc2NC(=O)Nc3cccc4ccccc34)C(C)(C)C

>  <data_validity_comment>  (10) 
nan

>  <data_validity_description>  (10) 
nan

>  <document_chembl_id>  (10) 
CHEMBL1201862

>  <document_journal>  (10) 
nan

>  <document_year>  (10) 
nan

>  <ligand_efficiency>  (10) 
nan

>  <molecule_pref_name>  (10) 
nan

>  <parent_molecule_chembl_id>  (10) 
CHEMBL1970290

>  <pchembl_value>  (10) 
5.4

>  <potential_duplicate>  (10) 
False

>  <qudt_units>  (10) 
http://www.openphacts.org/units/Nanomolar

>  <record_id>  (10) 
1584708

>  <relation>  (10) 
=

>  <src_id>  (10) 
7

>  <standard_flag>  (10) 
True

>  <standard_relation>  (10) 
=

>  <standard_text_value>  (10) 
nan

>  <standard_type>  (10) 
Ki

>  <standard_units>  (10) 
nM

>  <standard_upper_value>  (10) 
nan

>  <standard_value>  (10) 
3981.07

>  <target_chembl_id>  (10) 
CHEMBL4147

>  <target_organism>  (10) 
Homo sapiens

>  <target_pref_name>  (10) 
CaM kinase II alpha

>  <target_tax_id>  (10) 
9606

>  <text_value>  (10) 
nan

>  <toid>  (10) 
nan

>  <type>  (10) 
pKi

>  <units>  (10) 
nan

>  <uo_units>  (10) 
UO_0000065

>  <upper_value>  (10) 
nan

>  <value>  (10) 
5.4

>  <SMILES>  (10) 
CCN(CC)CCNC(=O)c1cccc(c1)n2nc(cc2NC(=O)Nc3cccc4ccccc34)C(C)(C)C

>  <NAME>  (10) 
CHEMBL1970290

>  <FILTER>  (10) 
OK

>  <MW>  (10) 
526.685

>  <LogP>  (10) 
6.0386

>  <HBD>  (10) 
3

>  <HBA>  (10) 
5

>  <TPSA>  (10) 
91.29

>  <Label>  (10) 
CAMK2A

$$$$
CHEMBL1974480
     RDKit          2D

 21 23  0  0  0  0  0  0  0  0999 V2000
    7.0211   -9.6517    0.0000 C   0  0  0  0  0  0  0  0  0  0  0  0
    5.7221   -8.9017    0.0000 C   0  0  0  0  0  0  0  0  0  0  0  0
    5.7221   -7.4017    0.0000 O   0  0  0  0  0  0  0  0  0  0  0  0
    4.4231   -6.6517    0.0000 C   0  0  0  0  0  0  0  0  0  0  0  0
    3.1240   -7.4017    0.0000 O   0  0  0  0  0  0  0  0  0  0  0  0
    4.4231   -5.1517    0.0000 C   0  0  0  0  0  0  0  0  0  0  0  0
    3.1240   -4.4017    0.0000 C   0  0  0  0  0  0  0  0  0  0  0  0
    2.9672   -2.9099    0.0000 N   0  0  0  0  0  0  0  0  0  0  0  0
    1.5000   -2.5981    0.0000 C   0  0  0  0  0  0  0  0  0  0  0  0
    0.7500   -1.2990    0.0000 C   0  0  0  0  0  0  0  0  0  0  0  0
    1.5000    0.0000    0.0000 C   0  0  0  0  0  0  0  0  0  0  0  0
    0.7500    1.2990    0.0000 C   0  0  0  0  0  0  0  0  0  0  0  0
    1.5000    2.5981    0.0000 Br  0  0  0  0  0  0  0  0  0  0  0  0
   -0.7500    1.2990    0.0000 C   0  0  0  0  0  0  0  0  0  0  0  0
   -1.5000    0.0000    0.0000 C   0  0  0  0  0  0  0  0  0  0  0  0
   -0.7500   -1.2990    0.0000 C   0  0  0  0  0  0  0  0  0  0  0  0
   -1.5000   -2.5981    0.0000 N   0  0  0  0  0  0  0  0  0  0  0  0
   -0.7500   -3.8971    0.0000 C   0  0  0  0  0  0  0  0  0  0  0  0
   -1.5000   -5.1962    0.0000 O   0  0  0  0  0  0  0  0  0  0  0  0
    0.7500   -3.8971    0.0000 N   0  0  0  0  0  0  0  0  0  0  0  0
    1.7537   -5.0118    0.0000 N   0  0  0  0  0  0  0  0  0  0  0  0
  1  2  1  0
  2  3  1  0
  3  4  1  0
  4  5  2  0
  4  6  1  0
  6  7  1  0
  7  8  1  0
  8  9  2  0
  9 10  1  0
 10 11  2  0
 11 12  1  0
 12 13  1  0
 12 14  2  0
 14 15  1  0
 15 16  2  0
 16 17  1  0
 17 18  1  0
 18 19  2  0
 18 20  1  0
 20 21  1  0
 21  7  2  0
 20  9  1  0
 16 10  1  0
M  END
>  <activity_comment>  (11) 
active

>  <activity_id>  (11) 
9511312

>  <activity_properties>  (11) 
[]

>  <assay_chembl_id>  (11) 
CHEMBL1964111

>  <assay_description>  (11) 
PUBCHEM_BIOASSAY: Navigating the Kinome. (Class of assay: other) Panel member name: CAMK2A

>  <assay_type>  (11) 
F

>  <bao_endpoint>  (11) 
BAO_0000192

>  <bao_format>  (11) 
BAO_0000019

>  <bao_label>  (11) 
assay format

>  <canonical_smiles>  (11) 
CCOC(=O)Cc1nc2c3cc(Br)ccc3NC(=O)n2n1

>  <data_validity_comment>  (11) 
nan

>  <data_validity_description>  (11) 
nan

>  <document_chembl_id>  (11) 
CHEMBL1201862

>  <document_journal>  (11) 
nan

>  <document_year>  (11) 
nan

>  <ligand_efficiency>  (11) 
nan

>  <molecule_pref_name>  (11) 
nan

>  <parent_molecule_chembl_id>  (11) 
CHEMBL1974480

>  <pchembl_value>  (11) 
5.7

>  <potential_duplicate>  (11) 
False

>  <qudt_units>  (11) 
http://www.openphacts.org/units/Nanomolar

>  <record_id>  (11) 
1584859

>  <relation>  (11) 
=

>  <src_id>  (11) 
7

>  <standard_flag>  (11) 
True

>  <standard_relation>  (11) 
=

>  <standard_text_value>  (11) 
nan

>  <standard_type>  (11) 
Ki

>  <standard_units>  (11) 
nM

>  <standard_upper_value>  (11) 
nan

>  <standard_value>  (11) 
1995.26

>  <target_chembl_id>  (11) 
CHEMBL4147

>  <target_organism>  (11) 
Homo sapiens

>  <target_pref_name>  (11) 
CaM kinase II alpha

>  <target_tax_id>  (11) 
9606

>  <text_value>  (11) 
nan

>  <toid>  (11) 
nan

>  <type>  (11) 
pKi

>  <units>  (11) 
nan

>  <uo_units>  (11) 
UO_0000065

>  <upper_value>  (11) 
nan

>  <value>  (11) 
5.7

>  <SMILES>  (11) 
CCOC(=O)Cc1nc2c3cc(Br)ccc3NC(=O)n2n1

>  <NAME>  (11) 
CHEMBL1974480

>  <FILTER>  (11) 
OK

>  <MW>  (11) 
351.16

>  <LogP>  (11) 
1.4389

>  <HBD>  (11) 
1

>  <HBA>  (11) 
6

>  <TPSA>  (11) 
89.35

>  <Label>  (11) 
CAMK2A

$$$$
CHEMBL1980671
     RDKit          2D

 17 19  0  0  0  0  0  0  0  0999 V2000
   -1.4635   -6.7316    0.0000 N   0  0  0  0  0  0  0  0  0  0  0  0
   -0.1121   -6.0808    0.0000 C   0  0  0  0  0  0  0  0  0  0  0  0
    1.1273   -6.9258    0.0000 N   0  0  0  0  0  0  0  0  0  0  0  0
    2.4787   -6.2750    0.0000 C   0  0  0  0  0  0  0  0  0  0  0  0
    2.5908   -4.7792    0.0000 N   0  0  0  0  0  0  0  0  0  0  0  0
    1.3515   -3.9342    0.0000 C   0  0  0  0  0  0  0  0  0  0  0  0
    1.6852   -2.4718    0.0000 N   0  0  0  0  0  0  0  0  0  0  0  0
    0.7500   -1.2990    0.0000 C   0  0  0  0  0  0  0  0  0  0  0  0
    1.5000    0.0000    0.0000 C   0  0  0  0  0  0  0  0  0  0  0  0
    0.7500    1.2990    0.0000 C   0  0  0  0  0  0  0  0  0  0  0  0
   -0.7500    1.2990    0.0000 C   0  0  0  0  0  0  0  0  0  0  0  0
   -1.5000    0.0000    0.0000 C   0  0  0  0  0  0  0  0  0  0  0  0
   -0.7500   -1.2990    0.0000 C   0  0  0  0  0  0  0  0  0  0  0  0
   -1.6852   -2.4718    0.0000 N   0  0  0  0  0  0  0  0  0  0  0  0
   -1.3515   -3.9342    0.0000 C   0  0  0  0  0  0  0  0  0  0  0  0
   -2.5242   -4.8694    0.0000 O   0  0  0  0  0  0  0  0  0  0  0  0
    0.0000   -4.5850    0.0000 C   0  0  0  0  0  0  0  0  0  0  0  0
  1  2  1  0
  2  3  2  0
  3  4  1  0
  4  5  2  0
  5  6  1  0
  6  7  1  0
  7  8  1  0
  8  9  2  0
  9 10  1  0
 10 11  2  0
 11 12  1  0
 12 13  2  0
 13 14  1  0
 14 15  1  0
 15 16  2  0
 15 17  1  0
 17  2  1  0
 17  6  2  0
 13  8  1  0
M  END
>  <activity_comment>  (12) 
active

>  <activity_id>  (12) 
9511314

>  <activity_properties>  (12) 
[]

>  <assay_chembl_id>  (12) 
CHEMBL1964111

>  <assay_description>  (12) 
PUBCHEM_BIOASSAY: Navigating the Kinome. (Class of assay: other) Panel member name: CAMK2A

>  <assay_type>  (12) 
F

>  <bao_endpoint>  (12) 
BAO_0000192

>  <bao_format>  (12) 
BAO_0000019

>  <bao_label>  (12) 
assay format

>  <canonical_smiles>  (12) 
Nc1ncnc2Nc3ccccc3NC(=O)c12

>  <data_validity_comment>  (12) 
nan

>  <data_validity_description>  (12) 
nan

>  <document_chembl_id>  (12) 
CHEMBL1201862

>  <document_journal>  (12) 
nan

>  <document_year>  (12) 
nan

>  <ligand_efficiency>  (12) 
nan

>  <molecule_pref_name>  (12) 
nan

>  <parent_molecule_chembl_id>  (12) 
CHEMBL1980671

>  <pchembl_value>  (12) 
4.4

>  <potential_duplicate>  (12) 
False

>  <qudt_units>  (12) 
http://www.openphacts.org/units/Nanomolar

>  <record_id>  (12) 
1584589

>  <relation>  (12) 
=

>  <src_id>  (12) 
7

>  <standard_flag>  (12) 
True

>  <standard_relation>  (12) 
=

>  <standard_text_value>  (12) 
nan

>  <standard_type>  (12) 
Ki

>  <standard_units>  (12) 
nM

>  <standard_upper_value>  (12) 
nan

>  <standard_value>  (12) 
39810.72

>  <target_chembl_id>  (12) 
CHEMBL4147

>  <target_organism>  (12) 
Homo sapiens

>  <target_pref_name>  (12) 
CaM kinase II alpha

>  <target_tax_id>  (12) 
9606

>  <text_value>  (12) 
nan

>  <toid>  (12) 
nan

>  <type>  (12) 
pKi

>  <units>  (12) 
nan

>  <uo_units>  (12) 
UO_0000065

>  <upper_value>  (12) 
nan

>  <value>  (12) 
4.4

>  <SMILES>  (12) 
Nc1ncnc2Nc3ccccc3NC(=O)c12

>  <NAME>  (12) 
CHEMBL1980671

>  <FILTER>  (12) 
OK

>  <MW>  (12) 
227.227

>  <LogP>  (12) 
1.3681

>  <HBD>  (12) 
3

>  <HBA>  (12) 
5

>  <TPSA>  (12) 
92.93

>  <Label>  (12) 
CAMK2A

$$$$
CHEMBL1996510
     RDKit          2D

 32 37  0  0  0  0  0  0  0  0999 V2000
   -6.5218   -0.9664    0.0000 O   0  0  0  0  0  0  0  0  0  0  0  0
   -5.3083   -1.8481    0.0000 C   0  0  0  0  0  0  0  0  0  0  0  0
   -5.3083   -3.3481    0.0000 N   0  0  0  0  0  0  0  0  0  0  0  0
   -3.8817   -3.8116    0.0000 C   0  0  0  0  0  0  0  0  0  0  0  0
   -3.4182   -5.2382    0.0000 O   0  0  0  0  0  0  0  0  0  0  0  0
   -3.0000   -2.5981    0.0000 C   0  0  0  0  0  0  0  0  0  0  0  0
   -3.8817   -1.3846    0.0000 C   0  0  0  0  0  0  0  0  0  0  0  0
   -3.4182    0.0420    0.0000 C   0  0  0  0  0  0  0  0  0  0  0  0
   -1.9916    0.5056    0.0000 C   0  0  0  0  0  0  0  0  0  0  0  0
   -1.9916    2.0056    0.0000 N   0  0  0  0  0  0  0  0  0  0  0  0
   -3.4182    2.4691    0.0000 C   0  0  0  0  0  0  0  0  0  0  0  0
   -4.0283    3.8394    0.0000 C   0  0  0  0  0  0  0  0  0  0  0  0
   -5.5200    3.9962    0.0000 C   0  0  0  0  0  0  0  0  0  0  0  0
   -6.4017    2.7827    0.0000 C   0  0  0  0  0  0  0  0  0  0  0  0
   -5.7916    1.4124    0.0000 C   0  0  0  0  0  0  0  0  0  0  0  0
   -4.2998    1.2556    0.0000 C   0  0  0  0  0  0  0  0  0  0  0  0
   -1.5000   -2.5981    0.0000 C   0  0  0  0  0  0  0  0  0  0  0  0
   -0.7500   -3.8971    0.0000 N   0  0  0  0  0  0  0  0  0  0  0  0
    0.7500   -3.8971    0.0000 C   0  0  0  0  0  0  0  0  0  0  0  0
    1.5000   -2.5981    0.0000 N   0  0  0  0  0  0  0  0  0  0  0  0
    0.7500   -1.2990    0.0000 C   0  0  0  0  0  0  0  0  0  0  0  0
    1.5000    0.0000    0.0000 C   0  0  0  0  0  0  0  0  0  0  0  0
    0.7500    1.2990    0.0000 C   0  0  0  0  0  0  0  0  0  0  0  0
   -0.7500    1.2990    0.0000 C   0  0  0  0  0  0  0  0  0  0  0  0
   -1.5000    0.0000    0.0000 C   0  0  0  0  0  0  0  0  0  0  0  0
   -0.7500   -1.2990    0.0000 C   0  0  0  0  0  0  0  0  0  0  0  0
    1.5000   -5.1962    0.0000 N   0  0  0  0  0  0  0  0  0  0  0  0
    0.7500   -6.4952    0.0000 C   0  0  0  0  0  0  0  0  0  0  0  0
    1.5000   -7.7942    0.0000 C   0  0  0  0  0  0  0  0  0  0  0  0
    3.0000   -7.7942    0.0000 N   0  0  0  0  0  0  0  0  0  0  0  0
    3.7500   -6.4952    0.0000 C   0  0  0  0  0  0  0  0  0  0  0  0
    3.0000   -5.1962    0.0000 C   0  0  0  0  0  0  0  0  0  0  0  0
  1  2  2  0
  2  3  1  0
  3  4  1  0
  4  5  2  0
  4  6  1  0
  6  7  2  0
  7  8  1  0
  8  9  2  0
  9 10  1  0
 10 11  1  0
 11 12  2  0
 12 13  1  0
 13 14  2  0
 14 15  1  0
 15 16  2  0
  6 17  1  0
 17 18  2  0
 18 19  1  0
 19 20  2  0
 20 21  1  0
 21 22  2  0
 22 23  1  0
 23 24  2  0
 24 25  1  0
 25 26  2  0
 19 27  1  0
 27 28  1  0
 28 29  1  0
 29 30  1  0
 30 31  1  0
 31 32  1  0
  7  2  1  0
 16  8  1  0
 16 11  1  0
 26 17  1  0
 26 21  1  0
 32 27  1  0
M  END
>  <activity_comment>  (13) 
active

>  <activity_id>  (13) 
9511322

>  <activity_properties>  (13) 
[]

>  <assay_chembl_id>  (13) 
CHEMBL1964111

>  <assay_description>  (13) 
PUBCHEM_BIOASSAY: Navigating the Kinome. (Class of assay: other) Panel member name: CAMK2A

>  <assay_type>  (13) 
F

>  <bao_endpoint>  (13) 
BAO_0000192

>  <bao_format>  (13) 
BAO_0000019

>  <bao_label>  (13) 
assay format

>  <canonical_smiles>  (13) 
O=C1NC(=O)C(=C1c2c[nH]c3ccccc23)c4nc(nc5ccccc45)N6CCNCC6

>  <data_validity_comment>  (13) 
nan

>  <data_validity_description>  (13) 
nan

>  <document_chembl_id>  (13) 
CHEMBL1201862

>  <document_journal>  (13) 
nan

>  <document_year>  (13) 
nan

>  <ligand_efficiency>  (13) 
nan

>  <molecule_pref_name>  (13) 
nan

>  <parent_molecule_chembl_id>  (13) 
CHEMBL1996510

>  <pchembl_value>  (13) 
6.3

>  <potential_duplicate>  (13) 
False

>  <qudt_units>  (13) 
http://www.openphacts.org/units/Nanomolar

>  <record_id>  (13) 
1584939

>  <relation>  (13) 
=

>  <src_id>  (13) 
7

>  <standard_flag>  (13) 
True

>  <standard_relation>  (13) 
=

>  <standard_text_value>  (13) 
nan

>  <standard_type>  (13) 
Ki

>  <standard_units>  (13) 
nM

>  <standard_upper_value>  (13) 
nan

>  <standard_value>  (13) 
501.19

>  <target_chembl_id>  (13) 
CHEMBL4147

>  <target_organism>  (13) 
Homo sapiens

>  <target_pref_name>  (13) 
CaM kinase II alpha

>  <target_tax_id>  (13) 
9606

>  <text_value>  (13) 
nan

>  <toid>  (13) 
nan

>  <type>  (13) 
pKi

>  <units>  (13) 
nan

>  <uo_units>  (13) 
UO_0000065

>  <upper_value>  (13) 
nan

>  <value>  (13) 
6.3

>  <SMILES>  (13) 
O=C1NC(=O)C(=C1c2c[nH]c3ccccc23)c4nc(nc5ccccc45)N6CCNCC6

>  <NAME>  (13) 
CHEMBL1996510

>  <FILTER>  (13) 
OK

>  <MW>  (13) 
424.464

>  <LogP>  (13) 
2.0879

>  <HBD>  (13) 
3

>  <HBA>  (13) 
6

>  <TPSA>  (13) 
103.01

>  <Label>  (13) 
CAMK2A

$$$$
CHEMBL2000029
     RDKit          2D

 29 33  0  0  0  0  0  0  0  0999 V2000
   -0.0372   -6.8216    0.0000 C   0  0  0  0  0  0  0  0  0  0  0  0
   -1.0409   -5.7068    0.0000 C   0  0  0  0  0  0  0  0  0  0  0  0
   -2.5081   -6.0187    0.0000 C   0  0  0  0  0  0  0  0  0  0  0  0
   -3.5118   -4.9040    0.0000 C   0  0  0  0  0  0  0  0  0  0  0  0
   -3.0482   -3.4774    0.0000 C   0  0  0  0  0  0  0  0  0  0  0  0
   -1.5810   -3.1655    0.0000 C   0  0  0  0  0  0  0  0  0  0  0  0
   -0.5773   -4.2803    0.0000 C   0  0  0  0  0  0  0  0  0  0  0  0
    0.8899   -3.9684    0.0000 C   0  0  0  0  0  0  0  0  0  0  0  0
    1.5000   -2.5981    0.0000 C   0  0  0  0  0  0  0  0  0  0  0  0
    2.9918   -2.7549    0.0000 N   0  0  0  0  0  0  0  0  0  0  0  0
    3.3037   -4.2221    0.0000 N   0  0  0  0  0  0  0  0  0  0  0  0
    2.0046   -4.9721    0.0000 N   0  0  0  0  0  0  0  0  0  0  0  0
    1.8478   -6.4639    0.0000 C   0  0  0  0  0  0  0  0  0  0  0  0
    3.0613   -7.3456    0.0000 C   0  0  0  0  0  0  0  0  0  0  0  0
    2.9046   -8.8373    0.0000 C   0  0  0  0  0  0  0  0  0  0  0  0
    4.1181   -9.7190    0.0000 C   0  0  0  0  0  0  0  0  0  0  0  0
    5.4884   -9.1089    0.0000 C   0  0  0  0  0  0  0  0  0  0  0  0
    5.6452   -7.6171    0.0000 C   0  0  0  0  0  0  0  0  0  0  0  0
    4.4317   -6.7354    0.0000 C   0  0  0  0  0  0  0  0  0  0  0  0
    0.7500   -1.2990    0.0000 C   0  0  0  0  0  0  0  0  0  0  0  0
    1.5000    0.0000    0.0000 C   0  0  0  0  0  0  0  0  0  0  0  0
    0.7500    1.2990    0.0000 C   0  0  0  0  0  0  0  0  0  0  0  0
   -0.7500    1.2990    0.0000 C   0  0  0  0  0  0  0  0  0  0  0  0
   -1.7537    2.4138    0.0000 N   0  0  0  0  0  0  0  0  0  0  0  0
   -3.1240    1.8037    0.0000 N   0  0  0  0  0  0  0  0  0  0  0  0
   -2.9672    0.3119    0.0000 C   0  0  0  0  0  0  0  0  0  0  0  0
   -4.0819   -0.6918    0.0000 N   0  0  0  0  0  0  0  0  0  0  0  0
   -1.5000    0.0000    0.0000 C   0  0  0  0  0  0  0  0  0  0  0  0
   -0.7500   -1.2990    0.0000 C   0  0  0  0  0  0  0  0  0  0  0  0
  1  2  1  0
  2  3  2  0
  3  4  1  0
  4  5  2  0
  5  6  1  0
  6  7  2  0
  7  8  1  0
  8  9  2  0
  9 10  1  0
 10 11  2  0
 11 12  1  0
 12 13  1  0
 13 14  1  0
 14 15  2  0
 15 16  1  0
 16 17  2  0
 17 18  1  0
 18 19  2  0
  9 20  1  0
 20 21  2  0
 21 22  1  0
 22 23  2  0
 23 24  1  0
 24 25  1  0
 25 26  2  0
 26 27  1  0
 26 28  1  0
 28 29  2  0
  7  2  1  0
 12  8  1  0
 19 14  1  0
 29 20  1  0
 28 23  1  0
M  END
>  <activity_comment>  (14) 
active

>  <activity_id>  (14) 
9511323

>  <activity_properties>  (14) 
[]

>  <assay_chembl_id>  (14) 
CHEMBL1964111

>  <assay_description>  (14) 
PUBCHEM_BIOASSAY: Navigating the Kinome. (Class of assay: other) Panel member name: CAMK2A

>  <assay_type>  (14) 
F

>  <bao_endpoint>  (14) 
BAO_0000192

>  <bao_format>  (14) 
BAO_0000019

>  <bao_label>  (14) 
assay format

>  <canonical_smiles>  (14) 
Cc1ccccc1c2c(nnn2Cc3ccccc3)c4ccc5[nH]nc(N)c5c4

>  <data_validity_comment>  (14) 
nan

>  <data_validity_description>  (14) 
nan

>  <document_chembl_id>  (14) 
CHEMBL1201862

>  <document_journal>  (14) 
nan

>  <document_year>  (14) 
nan

>  <ligand_efficiency>  (14) 
nan

>  <molecule_pref_name>  (14) 
nan

>  <parent_molecule_chembl_id>  (14) 
CHEMBL2000029

>  <pchembl_value>  (14) 
6.0

>  <potential_duplicate>  (14) 
False

>  <qudt_units>  (14) 
http://www.openphacts.org/units/Nanomolar

>  <record_id>  (14) 
1584367

>  <relation>  (14) 
=

>  <src_id>  (14) 
7

>  <standard_flag>  (14) 
True

>  <standard_relation>  (14) 
=

>  <standard_text_value>  (14) 
nan

>  <standard_type>  (14) 
Ki

>  <standard_units>  (14) 
nM

>  <standard_upper_value>  (14) 
nan

>  <standard_value>  (14) 
1000.0

>  <target_chembl_id>  (14) 
CHEMBL4147

>  <target_organism>  (14) 
Homo sapiens

>  <target_pref_name>  (14) 
CaM kinase II alpha

>  <target_tax_id>  (14) 
9606

>  <text_value>  (14) 
nan

>  <toid>  (14) 
nan

>  <type>  (14) 
pKi

>  <units>  (14) 
nan

>  <uo_units>  (14) 
UO_0000065

>  <upper_value>  (14) 
nan

>  <value>  (14) 
6.0

>  <SMILES>  (14) 
Cc1ccccc1c2c(nnn2Cc3ccccc3)c4ccc5[nH]nc(N)c5c4

>  <NAME>  (14) 
CHEMBL2000029

>  <FILTER>  (14) 
OK

>  <MW>  (14) 
380.455

>  <LogP>  (14) 
4.42732

>  <HBD>  (14) 
2

>  <HBA>  (14) 
5

>  <TPSA>  (14) 
85.41

>  <Label>  (14) 
CAMK2A

$$$$
CHEMBL1967998
     RDKit          2D

 32 36  0  0  0  0  0  0  0  0999 V2000
    8.0182   -0.4070    0.0000 C   0  0  0  0  0  0  0  0  0  0  0  0
    8.3301    1.0602    0.0000 C   0  0  0  0  0  0  0  0  0  0  0  0
    7.2154    2.0639    0.0000 N   0  0  0  0  0  0  0  0  0  0  0  0
    5.7888    1.6004    0.0000 C   0  0  0  0  0  0  0  0  0  0  0  0
    4.6741    2.6041    0.0000 C   0  0  0  0  0  0  0  0  0  0  0  0
    4.9859    4.0713    0.0000 N   0  0  0  0  0  0  0  0  0  0  0  0
    6.4125    4.5348    0.0000 C   0  0  0  0  0  0  0  0  0  0  0  0
    7.5272    3.5312    0.0000 C   0  0  0  0  0  0  0  0  0  0  0  0
    3.8712    5.0750    0.0000 C   0  0  0  0  0  0  0  0  0  0  0  0
    4.1831    6.5422    0.0000 C   0  0  0  0  0  0  0  0  0  0  0  0
    3.0684    7.5459    0.0000 C   0  0  0  0  0  0  0  0  0  0  0  0
    1.6418    7.0824    0.0000 C   0  0  0  0  0  0  0  0  0  0  0  0
    0.5271    8.0861    0.0000 N   0  0  0  0  0  0  0  0  0  0  0  0
   -0.8995    7.6226    0.0000 C   0  0  0  0  0  0  0  0  0  0  0  0
   -2.0143    8.6263    0.0000 N   0  0  0  0  0  0  0  0  0  0  0  0
   -3.4408    8.1628    0.0000 C   0  0  0  0  0  0  0  0  0  0  0  0
   -3.7527    6.6955    0.0000 C   0  0  0  0  0  0  0  0  0  0  0  0
   -5.1793    6.2320    0.0000 Cl  0  0  0  0  0  0  0  0  0  0  0  0
   -2.6380    5.6918    0.0000 C   0  0  0  0  0  0  0  0  0  0  0  0
   -2.9499    4.2246    0.0000 N   0  0  0  0  0  0  0  0  0  0  0  0
   -1.8351    3.2209    0.0000 C   0  0  0  0  0  0  0  0  0  0  0  0
   -0.4086    3.6844    0.0000 C   0  0  0  0  0  0  0  0  0  0  0  0
    0.7062    2.6807    0.0000 C   0  0  0  0  0  0  0  0  0  0  0  0
    0.3943    1.2135    0.0000 C   0  0  0  0  0  0  0  0  0  0  0  0
    1.2760    0.0000    0.0000 N   0  0  0  0  0  0  0  0  0  0  0  0
    0.3943   -1.2135    0.0000 N   0  0  0  0  0  0  0  0  0  0  0  0
   -1.0323   -0.7500    0.0000 C   0  0  0  0  0  0  0  0  0  0  0  0
   -1.0323    0.7500    0.0000 C   0  0  0  0  0  0  0  0  0  0  0  0
   -2.1470    1.7537    0.0000 C   0  0  0  0  0  0  0  0  0  0  0  0
   -1.2114    6.1554    0.0000 N   0  0  0  0  0  0  0  0  0  0  0  0
    1.3299    5.6152    0.0000 C   0  0  0  0  0  0  0  0  0  0  0  0
    2.4446    4.6115    0.0000 C   0  0  0  0  0  0  0  0  0  0  0  0
  1  2  1  0
  2  3  1  0
  3  4  1  0
  4  5  1  0
  5  6  1  0
  6  7  1  0
  7  8  1  0
  6  9  1  0
  9 10  2  0
 10 11  1  0
 11 12  2  0
 12 13  1  0
 13 14  1  0
 14 15  2  0
 15 16  1  0
 16 17  2  0
 17 18  1  0
 17 19  1  0
 19 20  1  0
 20 21  1  0
 21 22  2  0
 22 23  1  0
 23 24  2  0
 24 25  1  0
 25 26  1  0
 26 27  2  0
 27 28  1  0
 28 29  2  0
 19 30  2  0
 12 31  1  0
 31 32  2  0
  8  3  1  0
 32  9  1  0
 30 14  1  0
 29 21  1  0
 28 24  1  0
M  END
>  <activity_comment>  (15) 
active

>  <activity_id>  (15) 
9511327

>  <activity_properties>  (15) 
[]

>  <assay_chembl_id>  (15) 
CHEMBL1964111

>  <assay_description>  (15) 
PUBCHEM_BIOASSAY: Navigating the Kinome. (Class of assay: other) Panel member name: CAMK2A

>  <assay_type>  (15) 
F

>  <bao_endpoint>  (15) 
BAO_0000192

>  <bao_format>  (15) 
BAO_0000019

>  <bao_label>  (15) 
assay format

>  <canonical_smiles>  (15) 
CCN1CCN(CC1)c2ccc(Nc3ncc(Cl)c(Nc4ccc5[nH]ncc5c4)n3)cc2

>  <data_validity_comment>  (15) 
nan

>  <data_validity_description>  (15) 
nan

>  <document_chembl_id>  (15) 
CHEMBL1201862

>  <document_journal>  (15) 
nan

>  <document_year>  (15) 
nan

>  <ligand_efficiency>  (15) 
nan

>  <molecule_pref_name>  (15) 
nan

>  <parent_molecule_chembl_id>  (15) 
CHEMBL1967998

>  <pchembl_value>  (15) 
5.4

>  <potential_duplicate>  (15) 
False

>  <qudt_units>  (15) 
http://www.openphacts.org/units/Nanomolar

>  <record_id>  (15) 
1584481

>  <relation>  (15) 
=

>  <src_id>  (15) 
7

>  <standard_flag>  (15) 
True

>  <standard_relation>  (15) 
=

>  <standard_text_value>  (15) 
nan

>  <standard_type>  (15) 
Ki

>  <standard_units>  (15) 
nM

>  <standard_upper_value>  (15) 
nan

>  <standard_value>  (15) 
3981.07

>  <target_chembl_id>  (15) 
CHEMBL4147

>  <target_organism>  (15) 
Homo sapiens

>  <target_pref_name>  (15) 
CaM kinase II alpha

>  <target_tax_id>  (15) 
9606

>  <text_value>  (15) 
nan

>  <toid>  (15) 
nan

>  <type>  (15) 
pKi

>  <units>  (15) 
nan

>  <uo_units>  (15) 
UO_0000065

>  <upper_value>  (15) 
nan

>  <value>  (15) 
5.4

>  <SMILES>  (15) 
CCN1CCN(CC1)c2ccc(Nc3ncc(Cl)c(Nc4ccc5[nH]ncc5c4)n3)cc2

>  <NAME>  (15) 
CHEMBL1967998

>  <FILTER>  (15) 
OK

>  <MW>  (15) 
448.962

>  <LogP>  (15) 
4.6354

>  <HBD>  (15) 
3

>  <HBA>  (15) 
7

>  <TPSA>  (15) 
85.0

>  <Label>  (15) 
CAMK2A

$$$$
CHEMBL1974875
     RDKit          2D

 14 15  0  0  0  0  0  0  0  0999 V2000
   -1.7843    5.4484    0.0000 O   0  0  0  0  0  0  0  0  0  0  0  0
   -1.8068    3.9485    0.0000 C   0  0  0  0  0  0  0  0  0  0  0  0
   -3.1169    3.2181    0.0000 O   0  0  0  0  0  0  0  0  0  0  0  0
   -0.5191    3.1792    0.0000 C   0  0  0  0  0  0  0  0  0  0  0  0
    0.8602    3.7687    0.0000 C   0  0  0  0  0  0  0  0  0  0  0  0
    1.8471    2.6391    0.0000 S   0  0  0  0  0  0  0  0  0  0  0  0
    1.0777    1.3515    0.0000 C   0  0  0  0  0  0  0  0  0  0  0  0
    1.7286    0.0000    0.0000 C   0  0  0  0  0  0  0  0  0  0  0  0
    3.2286    0.0000    0.0000 O   0  0  0  0  0  0  0  0  0  0  0  0
    1.0777   -1.3515    0.0000 N   0  0  0  0  0  0  0  0  0  0  0  0
   -0.3846   -1.6852    0.0000 C   0  0  0  0  0  0  0  0  0  0  0  0
   -1.5574   -0.7500    0.0000 C   0  0  0  0  0  0  0  0  0  0  0  0
   -1.5574    0.7500    0.0000 N   0  0  0  0  0  0  0  0  0  0  0  0
   -0.3846    1.6852    0.0000 C   0  0  0  0  0  0  0  0  0  0  0  0
  1  2  1  0
  2  3  2  0
  2  4  1  0
  4  5  2  0
  5  6  1  0
  6  7  1  0
  7  8  1  0
  8  9  2  0
  8 10  1  0
 10 11  1  0
 11 12  1  0
 12 13  1  0
 13 14  1  0
 14  4  1  0
 14  7  2  0
M  END
>  <activity_comment>  (16) 
active

>  <activity_id>  (16) 
9511331

>  <activity_properties>  (16) 
[]

>  <assay_chembl_id>  (16) 
CHEMBL1964111

>  <assay_description>  (16) 
PUBCHEM_BIOASSAY: Navigating the Kinome. (Class of assay: other) Panel member name: CAMK2A

>  <assay_type>  (16) 
F

>  <bao_endpoint>  (16) 
BAO_0000192

>  <bao_format>  (16) 
BAO_0000019

>  <bao_label>  (16) 
assay format

>  <canonical_smiles>  (16) 
OC(=O)c1csc2C(=O)NCCNc12

>  <data_validity_comment>  (16) 
nan

>  <data_validity_description>  (16) 
nan

>  <document_chembl_id>  (16) 
CHEMBL1201862

>  <document_journal>  (16) 
nan

>  <document_year>  (16) 
nan

>  <ligand_efficiency>  (16) 
nan

>  <molecule_pref_name>  (16) 
nan

>  <parent_molecule_chembl_id>  (16) 
CHEMBL1974875

>  <pchembl_value>  (16) 
4.5

>  <potential_duplicate>  (16) 
False

>  <qudt_units>  (16) 
http://www.openphacts.org/units/Nanomolar

>  <record_id>  (16) 
1585381

>  <relation>  (16) 
=

>  <src_id>  (16) 
7

>  <standard_flag>  (16) 
True

>  <standard_relation>  (16) 
=

>  <standard_text_value>  (16) 
nan

>  <standard_type>  (16) 
Ki

>  <standard_units>  (16) 
nM

>  <standard_upper_value>  (16) 
nan

>  <standard_value>  (16) 
31622.78

>  <target_chembl_id>  (16) 
CHEMBL4147

>  <target_organism>  (16) 
Homo sapiens

>  <target_pref_name>  (16) 
CaM kinase II alpha

>  <target_tax_id>  (16) 
9606

>  <text_value>  (16) 
nan

>  <toid>  (16) 
nan

>  <type>  (16) 
pKi

>  <units>  (16) 
nan

>  <uo_units>  (16) 
UO_0000065

>  <upper_value>  (16) 
nan

>  <value>  (16) 
4.5

>  <SMILES>  (16) 
OC(=O)c1csc2C(=O)NCCNc12

>  <NAME>  (16) 
CHEMBL1974875

>  <FILTER>  (16) 
OK

>  <MW>  (16) 
212.23

>  <LogP>  (16) 
0.6016

>  <HBD>  (16) 
3

>  <HBA>  (16) 
4

>  <TPSA>  (16) 
78.43

>  <Label>  (16) 
CAMK2A

$$$$
CHEMBL1996646
     RDKit          2D

 30 33  0  0  0  0  0  0  0  0999 V2000
   -6.0000   -7.7942    0.0000 C   0  0  0  0  0  0  0  0  0  0  0  0
   -5.2500   -6.4952    0.0000 O   0  0  0  0  0  0  0  0  0  0  0  0
   -6.0000   -5.1962    0.0000 C   0  0  0  0  0  0  0  0  0  0  0  0
   -7.5000   -5.1962    0.0000 C   0  0  0  0  0  0  0  0  0  0  0  0
   -8.2500   -3.8971    0.0000 C   0  0  0  0  0  0  0  0  0  0  0  0
   -7.5000   -2.5981    0.0000 C   0  0  0  0  0  0  0  0  0  0  0  0
   -6.0000   -2.5981    0.0000 C   0  0  0  0  0  0  0  0  0  0  0  0
   -5.2500   -1.2990    0.0000 O   0  0  0  0  0  0  0  0  0  0  0  0
   -6.0000    0.0000    0.0000 C   0  0  0  0  0  0  0  0  0  0  0  0
   -5.2500   -3.8971    0.0000 C   0  0  0  0  0  0  0  0  0  0  0  0
   -3.7500   -3.8971    0.0000 C   0  0  0  0  0  0  0  0  0  0  0  0
   -3.0000   -2.5981    0.0000 N   0  0  0  0  0  0  0  0  0  0  0  0
   -1.5000   -2.5981    0.0000 C   0  0  0  0  0  0  0  0  0  0  0  0
   -0.7500   -3.8971    0.0000 N   0  0  0  0  0  0  0  0  0  0  0  0
    0.7500   -3.8971    0.0000 C   0  0  0  0  0  0  0  0  0  0  0  0
    1.5000   -5.1962    0.0000 N   0  0  0  0  0  0  0  0  0  0  0  0
    0.7500   -6.4952    0.0000 C   0  0  0  0  0  0  0  0  0  0  0  0
   -0.7500   -6.4952    0.0000 C   0  0  0  0  0  0  0  0  0  0  0  0
   -1.5000   -7.7942    0.0000 C   0  0  0  0  0  0  0  0  0  0  0  0
   -0.7500   -9.0933    0.0000 C   0  0  0  0  0  0  0  0  0  0  0  0
    0.7500   -9.0933    0.0000 C   0  0  0  0  0  0  0  0  0  0  0  0
    1.5000   -7.7942    0.0000 C   0  0  0  0  0  0  0  0  0  0  0  0
    1.5000   -2.5981    0.0000 N   0  0  0  0  0  0  0  0  0  0  0  0
    0.7500   -1.2990    0.0000 C   0  0  0  0  0  0  0  0  0  0  0  0
    1.5000    0.0000    0.0000 C   0  0  0  0  0  0  0  0  0  0  0  0
    0.7500    1.2990    0.0000 C   0  0  0  0  0  0  0  0  0  0  0  0
   -0.7500    1.2990    0.0000 C   0  0  0  0  0  0  0  0  0  0  0  0
   -1.5000    2.5981    0.0000 Cl  0  0  0  0  0  0  0  0  0  0  0  0
   -1.5000    0.0000    0.0000 C   0  0  0  0  0  0  0  0  0  0  0  0
   -0.7500   -1.2990    0.0000 C   0  0  0  0  0  0  0  0  0  0  0  0
  1  2  1  0
  2  3  1  0
  3  4  2  0
  4  5  1  0
  5  6  2  0
  6  7  1  0
  7  8  1  0
  8  9  1  0
  7 10  2  0
 10 11  1  0
 11 12  1  0
 12 13  1  0
 13 14  2  0
 14 15  1  0
 15 16  1  0
 16 17  1  0
 17 18  1  0
 18 19  1  0
 19 20  1  0
 20 21  1  0
 21 22  1  0
 15 23  2  0
 23 24  1  0
 24 25  2  0
 25 26  1  0
 26 27  2  0
 27 28  1  0
 27 29  1  0
 29 30  2  0
 10  3  1  0
 30 13  1  0
 22 17  1  0
 30 24  1  0
M  END
>  <activity_comment>  (17) 
active

>  <activity_id>  (17) 
9511333

>  <activity_properties>  (17) 
[]

>  <assay_chembl_id>  (17) 
CHEMBL1964111

>  <assay_description>  (17) 
PUBCHEM_BIOASSAY: Navigating the Kinome. (Class of assay: other) Panel member name: CAMK2A

>  <assay_type>  (17) 
F

>  <bao_endpoint>  (17) 
BAO_0000192

>  <bao_format>  (17) 
BAO_0000019

>  <bao_label>  (17) 
assay format

>  <canonical_smiles>  (17) 
COc1cccc(OC)c1CNc2nc(NC3CCCCC3)nc4ccc(Cl)cc24

>  <data_validity_comment>  (17) 
nan

>  <data_validity_description>  (17) 
nan

>  <document_chembl_id>  (17) 
CHEMBL1201862

>  <document_journal>  (17) 
nan

>  <document_year>  (17) 
nan

>  <ligand_efficiency>  (17) 
nan

>  <molecule_pref_name>  (17) 
nan

>  <parent_molecule_chembl_id>  (17) 
CHEMBL1996646

>  <pchembl_value>  (17) 
5.5

>  <potential_duplicate>  (17) 
False

>  <qudt_units>  (17) 
http://www.openphacts.org/units/Nanomolar

>  <record_id>  (17) 
1585288

>  <relation>  (17) 
=

>  <src_id>  (17) 
7

>  <standard_flag>  (17) 
True

>  <standard_relation>  (17) 
=

>  <standard_text_value>  (17) 
nan

>  <standard_type>  (17) 
Ki

>  <standard_units>  (17) 
nM

>  <standard_upper_value>  (17) 
nan

>  <standard_value>  (17) 
3162.28

>  <target_chembl_id>  (17) 
CHEMBL4147

>  <target_organism>  (17) 
Homo sapiens

>  <target_pref_name>  (17) 
CaM kinase II alpha

>  <target_tax_id>  (17) 
9606

>  <text_value>  (17) 
nan

>  <toid>  (17) 
nan

>  <type>  (17) 
pKi

>  <units>  (17) 
nan

>  <uo_units>  (17) 
UO_0000065

>  <upper_value>  (17) 
nan

>  <value>  (17) 
5.5

>  <SMILES>  (17) 
COc1cccc(OC)c1CNc2nc(NC3CCCCC3)nc4ccc(Cl)cc24

>  <NAME>  (17) 
CHEMBL1996646

>  <FILTER>  (17) 
OK

>  <MW>  (17) 
426.948

>  <LogP>  (17) 
5.6571

>  <HBD>  (17) 
2

>  <HBA>  (17) 
6

>  <TPSA>  (17) 
68.3

>  <Label>  (17) 
CAMK2A

$$$$
CHEMBL2002099
     RDKit          2D

 23 26  0  0  0  0  0  0  0  0999 V2000
  -10.5923    4.1480    0.0000 N   0  0  0  0  0  0  0  0  0  0  0  0
   -9.1657    3.6844    0.0000 C   0  0  0  0  0  0  0  0  0  0  0  0
   -7.7391    3.2209    0.0000 C   0  0  0  0  0  0  0  0  0  0  0  0
   -7.4272    1.7537    0.0000 C   0  0  0  0  0  0  0  0  0  0  0  0
   -8.5419    0.7500    0.0000 C   0  0  0  0  0  0  0  0  0  0  0  0
   -8.3851   -0.7418    0.0000 C   0  0  0  0  0  0  0  0  0  0  0  0
   -9.7555   -1.3519    0.0000 C   0  0  0  0  0  0  0  0  0  0  0  0
  -10.7592   -0.2372    0.0000 C   0  0  0  0  0  0  0  0  0  0  0  0
  -10.0092    1.0619    0.0000 C   0  0  0  0  0  0  0  0  0  0  0  0
   -6.0006    1.2902    0.0000 N   0  0  0  0  0  0  0  0  0  0  0  0
   -4.7871    2.1718    0.0000 C   0  0  0  0  0  0  0  0  0  0  0  0
   -3.5736    1.2902    0.0000 C   0  0  0  0  0  0  0  0  0  0  0  0
   -4.0371   -0.1364    0.0000 C   0  0  0  0  0  0  0  0  0  0  0  0
   -5.5371   -0.1364    0.0000 N   0  0  0  0  0  0  0  0  0  0  0  0
   -2.1470    1.7537    0.0000 C   0  0  0  0  0  0  0  0  0  0  0  0
   -1.8351    3.2209    0.0000 N   0  0  0  0  0  0  0  0  0  0  0  0
   -0.4086    3.6844    0.0000 C   0  0  0  0  0  0  0  0  0  0  0  0
    0.7062    2.6807    0.0000 N   0  0  0  0  0  0  0  0  0  0  0  0
    0.3943    1.2135    0.0000 C   0  0  0  0  0  0  0  0  0  0  0  0
    1.2760    0.0000    0.0000 N   0  0  0  0  0  0  0  0  0  0  0  0
    0.3943   -1.2135    0.0000 C   0  0  0  0  0  0  0  0  0  0  0  0
   -1.0323   -0.7500    0.0000 C   0  0  0  0  0  0  0  0  0  0  0  0
   -1.0323    0.7500    0.0000 C   0  0  0  0  0  0  0  0  0  0  0  0
  1  2  3  0
  2  3  1  0
  3  4  1  0
  4  5  1  0
  5  6  1  0
  6  7  1  0
  7  8  1  0
  8  9  1  0
  4 10  1  0
 10 11  1  0
 11 12  2  0
 12 13  1  0
 13 14  2  0
 12 15  1  0
 15 16  2  0
 16 17  1  0
 17 18  2  0
 18 19  1  0
 19 20  1  0
 20 21  1  0
 21 22  2  0
 22 23  1  0
  9  5  1  0
 14 10  1  0
 23 15  1  0
 23 19  2  0
M  END
>  <activity_comment>  (18) 
active

>  <activity_id>  (18) 
9511336

>  <activity_properties>  (18) 
[]

>  <assay_chembl_id>  (18) 
CHEMBL1964111

>  <assay_description>  (18) 
PUBCHEM_BIOASSAY: Navigating the Kinome. (Class of assay: other) Panel member name: CAMK2A

>  <assay_type>  (18) 
F

>  <bao_endpoint>  (18) 
BAO_0000192

>  <bao_format>  (18) 
BAO_0000019

>  <bao_label>  (18) 
assay format

>  <canonical_smiles>  (18) 
N#CCC(C1CCCC1)n2cc(cn2)c3ncnc4[nH]ccc34

>  <data_validity_comment>  (18) 
nan

>  <data_validity_description>  (18) 
nan

>  <document_chembl_id>  (18) 
CHEMBL1201862

>  <document_journal>  (18) 
nan

>  <document_year>  (18) 
nan

>  <ligand_efficiency>  (18) 
nan

>  <molecule_pref_name>  (18) 
nan

>  <parent_molecule_chembl_id>  (18) 
CHEMBL2002099

>  <pchembl_value>  (18) 
6.5

>  <potential_duplicate>  (18) 
False

>  <qudt_units>  (18) 
http://www.openphacts.org/units/Nanomolar

>  <record_id>  (18) 
1585155

>  <relation>  (18) 
=

>  <src_id>  (18) 
7

>  <standard_flag>  (18) 
True

>  <standard_relation>  (18) 
=

>  <standard_text_value>  (18) 
nan

>  <standard_type>  (18) 
Ki

>  <standard_units>  (18) 
nM

>  <standard_upper_value>  (18) 
nan

>  <standard_value>  (18) 
316.23

>  <target_chembl_id>  (18) 
CHEMBL4147

>  <target_organism>  (18) 
Homo sapiens

>  <target_pref_name>  (18) 
CaM kinase II alpha

>  <target_tax_id>  (18) 
9606

>  <text_value>  (18) 
nan

>  <toid>  (18) 
nan

>  <type>  (18) 
pKi

>  <units>  (18) 
nan

>  <uo_units>  (18) 
UO_0000065

>  <upper_value>  (18) 
nan

>  <value>  (18) 
6.5

>  <SMILES>  (18) 
N#CCC(C1CCCC1)n2cc(cn2)c3ncnc4[nH]ccc34

>  <NAME>  (18) 
CHEMBL2002099

>  <FILTER>  (18) 
OK

>  <MW>  (18) 
306.373

>  <LogP>  (18) 
3.46638

>  <HBD>  (18) 
1

>  <HBA>  (18) 
5

>  <TPSA>  (18) 
83.18

>  <Label>  (18) 
CAMK2A

$$$$
CHEMBL1996702
     RDKit          2D

 34 37  0  0  0  0  0  0  0  0999 V2000
   -0.7500   -6.4952    0.0000 C   0  0  0  0  0  0  0  0  0  0  0  0
    0.7500   -6.4952    0.0000 O   0  0  0  0  0  0  0  0  0  0  0  0
    1.5000   -5.1962    0.0000 C   0  0  0  0  0  0  0  0  0  0  0  0
    0.7500   -3.8971    0.0000 C   0  0  0  0  0  0  0  0  0  0  0  0
    1.5000   -2.5981    0.0000 C   0  0  0  0  0  0  0  0  0  0  0  0
    3.0000   -2.5981    0.0000 C   0  0  0  0  0  0  0  0  0  0  0  0
    3.7500   -3.8971    0.0000 C   0  0  0  0  0  0  0  0  0  0  0  0
    3.0000   -5.1962    0.0000 C   0  0  0  0  0  0  0  0  0  0  0  0
    3.7500   -6.4952    0.0000 O   0  0  0  0  0  0  0  0  0  0  0  0
    0.7500   -1.2990    0.0000 C   0  0  0  0  0  0  0  0  0  0  0  0
    1.5000    0.0000    0.0000 C   0  0  0  0  0  0  0  0  0  0  0  0
    0.7500    1.2990    0.0000 C   0  0  0  0  0  0  0  0  0  0  0  0
   -0.7500    1.2990    0.0000 C   0  0  0  0  0  0  0  0  0  0  0  0
   -1.2980    2.6953    0.0000 C   0  0  0  0  0  0  0  0  0  0  0  0
   -0.2778    3.7949    0.0000 O   0  0  0  0  0  0  0  0  0  0  0  0
   -2.7314    3.1375    0.0000 N   0  0  0  0  0  0  0  0  0  0  0  0
   -3.9707    2.2925    0.0000 C   0  0  0  0  0  0  0  0  0  0  0  0
   -5.2101    3.1375    0.0000 C   0  0  0  0  0  0  0  0  0  0  0  0
   -6.5615    2.4867    0.0000 C   0  0  0  0  0  0  0  0  0  0  0  0
   -6.6736    0.9909    0.0000 C   0  0  0  0  0  0  0  0  0  0  0  0
   -5.4343    0.1459    0.0000 C   0  0  0  0  0  0  0  0  0  0  0  0
   -4.0828    0.7967    0.0000 C   0  0  0  0  0  0  0  0  0  0  0  0
   -2.9832   -0.2236    0.0000 N   0  0  0  0  0  0  0  0  0  0  0  0
   -1.5000    0.0000    0.0000 C   0  0  0  0  0  0  0  0  0  0  0  0
   -0.7500   -1.2990    0.0000 C   0  0  0  0  0  0  0  0  0  0  0  0
   -7.8009    3.3316    0.0000 C   0  0  0  0  0  0  0  0  0  0  0  0
   -9.1524    2.6808    0.0000 O   0  0  0  0  0  0  0  0  0  0  0  0
   -7.6888    4.8274    0.0000 N   0  0  0  0  0  0  0  0  0  0  0  0
   -8.9282    5.6724    0.0000 C   0  0  0  0  0  0  0  0  0  0  0  0
   -8.8161    7.1682    0.0000 C   0  0  0  0  0  0  0  0  0  0  0  0
  -10.0554    8.0132    0.0000 C   0  0  0  0  0  0  0  0  0  0  0  0
   -9.9433    9.5090    0.0000 N   0  0  0  0  0  0  0  0  0  0  0  0
  -11.1827   10.3540    0.0000 C   0  0  0  0  0  0  0  0  0  0  0  0
   -8.5919   10.1598    0.0000 C   0  0  0  0  0  0  0  0  0  0  0  0
  1  2  1  0
  2  3  1  0
  3  4  2  0
  4  5  1  0
  5  6  2  0
  6  7  1  0
  7  8  2  0
  8  9  1  0
  5 10  1  0
 10 11  2  0
 11 12  1  0
 12 13  2  0
 13 14  1  0
 14 15  2  0
 14 16  1  0
 16 17  1  0
 17 18  2  0
 18 19  1  0
 19 20  2  0
 20 21  1  0
 21 22  2  0
 22 23  1  0
 23 24  1  0
 24 25  2  0
 19 26  1  0
 26 27  2  0
 26 28  1  0
 28 29  1  0
 29 30  1  0
 30 31  1  0
 31 32  1  0
 32 33  1  0
 32 34  1  0
  8  3  1  0
 25 10  1  0
 24 13  1  0
 22 17  1  0
M  END
>  <activity_comment>  (19) 
active

>  <activity_id>  (19) 
9511337

>  <activity_properties>  (19) 
[]

>  <assay_chembl_id>  (19) 
CHEMBL1964111

>  <assay_description>  (19) 
PUBCHEM_BIOASSAY: Navigating the Kinome. (Class of assay: other) Panel member name: CAMK2A

>  <assay_type>  (19) 
F

>  <bao_endpoint>  (19) 
BAO_0000192

>  <bao_format>  (19) 
BAO_0000019

>  <bao_label>  (19) 
assay format

>  <canonical_smiles>  (19) 
COc1cc(ccc1O)c2ccc3C(=O)Nc4cc(ccc4Nc3c2)C(=O)NCCCN(C)C

>  <data_validity_comment>  (19) 
nan

>  <data_validity_description>  (19) 
nan

>  <document_chembl_id>  (19) 
CHEMBL1201862

>  <document_journal>  (19) 
nan

>  <document_year>  (19) 
nan

>  <ligand_efficiency>  (19) 
nan

>  <molecule_pref_name>  (19) 
nan

>  <parent_molecule_chembl_id>  (19) 
CHEMBL1996702

>  <pchembl_value>  (19) 
5.8

>  <potential_duplicate>  (19) 
False

>  <qudt_units>  (19) 
http://www.openphacts.org/units/Nanomolar

>  <record_id>  (19) 
1584588

>  <relation>  (19) 
=

>  <src_id>  (19) 
7

>  <standard_flag>  (19) 
True

>  <standard_relation>  (19) 
=

>  <standard_text_value>  (19) 
nan

>  <standard_type>  (19) 
Ki

>  <standard_units>  (19) 
nM

>  <standard_upper_value>  (19) 
nan

>  <standard_value>  (19) 
1584.89

>  <target_chembl_id>  (19) 
CHEMBL4147

>  <target_organism>  (19) 
Homo sapiens

>  <target_pref_name>  (19) 
CaM kinase II alpha

>  <target_tax_id>  (19) 
9606

>  <text_value>  (19) 
nan

>  <toid>  (19) 
nan

>  <type>  (19) 
pKi

>  <units>  (19) 
nan

>  <uo_units>  (19) 
UO_0000065

>  <upper_value>  (19) 
nan

>  <value>  (19) 
5.8

>  <SMILES>  (19) 
COc1cc(ccc1O)c2ccc3C(=O)Nc4cc(ccc4Nc3c2)C(=O)NCCCN(C)C

>  <NAME>  (19) 
CHEMBL1996702

>  <FILTER>  (19) 
OK

>  <MW>  (19) 
460.534

>  <LogP>  (19) 
4.0586

>  <HBD>  (19) 
4

>  <HBA>  (19) 
6

>  <TPSA>  (19) 
102.93

>  <Label>  (19) 
CAMK2A

$$$$
CHEMBL2006439
     RDKit          2D

 23 26  0  0  0  0  0  0  0  0999 V2000
   -6.2961   -1.6453    0.0000 Cl  0  0  0  0  0  0  0  0  0  0  0  0
   -5.1814   -2.6490    0.0000 C   0  0  0  0  0  0  0  0  0  0  0  0
   -3.7548   -2.1855    0.0000 C   0  0  0  0  0  0  0  0  0  0  0  0
   -2.6401   -3.1891    0.0000 C   0  0  0  0  0  0  0  0  0  0  0  0
   -2.9520   -4.6564    0.0000 N   0  0  0  0  0  0  0  0  0  0  0  0
   -4.3786   -5.1199    0.0000 C   0  0  0  0  0  0  0  0  0  0  0  0
   -4.6904   -6.5871    0.0000 N   0  0  0  0  0  0  0  0  0  0  0  0
   -6.1170   -7.0506    0.0000 C   0  0  0  0  0  0  0  0  0  0  0  0
   -7.2317   -6.0469    0.0000 C   0  0  0  0  0  0  0  0  0  0  0  0
   -8.6583   -6.5105    0.0000 C   0  0  0  0  0  0  0  0  0  0  0  0
   -8.9702   -7.9777    0.0000 C   0  0  0  0  0  0  0  0  0  0  0  0
   -7.8555   -8.9814    0.0000 C   0  0  0  0  0  0  0  0  0  0  0  0
   -6.4289   -8.5179    0.0000 C   0  0  0  0  0  0  0  0  0  0  0  0
   -5.4933   -4.1162    0.0000 N   0  0  0  0  0  0  0  0  0  0  0  0
   -1.2135   -2.7256    0.0000 C   0  0  0  0  0  0  0  0  0  0  0  0
    0.0000   -3.6073    0.0000 C   0  0  0  0  0  0  0  0  0  0  0  0
    1.2135   -2.7256    0.0000 N   0  0  0  0  0  0  0  0  0  0  0  0
    0.7500   -1.2990    0.0000 C   0  0  0  0  0  0  0  0  0  0  0  0
    1.5000    0.0000    0.0000 N   0  0  0  0  0  0  0  0  0  0  0  0
    0.7500    1.2990    0.0000 C   0  0  0  0  0  0  0  0  0  0  0  0
   -0.7500    1.2990    0.0000 C   0  0  0  0  0  0  0  0  0  0  0  0
   -1.5000    0.0000    0.0000 C   0  0  0  0  0  0  0  0  0  0  0  0
   -0.7500   -1.2990    0.0000 C   0  0  0  0  0  0  0  0  0  0  0  0
  1  2  1  0
  2  3  2  0
  3  4  1  0
  4  5  2  0
  5  6  1  0
  6  7  1  0
  7  8  1  0
  8  9  1  0
  9 10  1  0
 10 11  1  0
 11 12  1  0
 12 13  1  0
  6 14  2  0
  4 15  1  0
 15 16  2  0
 16 17  1  0
 17 18  1  0
 18 19  2  0
 19 20  1  0
 20 21  2  0
 21 22  1  0
 22 23  2  0
 14  2  1  0
 13  8  1  0
 23 15  1  0
 23 18  1  0
M  END
>  <activity_comment>  (20) 
active

>  <activity_id>  (20) 
9511342

>  <activity_properties>  (20) 
[]

>  <assay_chembl_id>  (20) 
CHEMBL1964111

>  <assay_description>  (20) 
PUBCHEM_BIOASSAY: Navigating the Kinome. (Class of assay: other) Panel member name: CAMK2A

>  <assay_type>  (20) 
F

>  <bao_endpoint>  (20) 
BAO_0000192

>  <bao_format>  (20) 
BAO_0000019

>  <bao_label>  (20) 
assay format

>  <canonical_smiles>  (20) 
Clc1cc(nc(NC2CCCCC2)n1)c3c[nH]c4ncccc34

>  <data_validity_comment>  (20) 
nan

>  <data_validity_description>  (20) 
nan

>  <document_chembl_id>  (20) 
CHEMBL1201862

>  <document_journal>  (20) 
nan

>  <document_year>  (20) 
nan

>  <ligand_efficiency>  (20) 
nan

>  <molecule_pref_name>  (20) 
nan

>  <parent_molecule_chembl_id>  (20) 
CHEMBL2006439

>  <pchembl_value>  (20) 
5.5

>  <potential_duplicate>  (20) 
False

>  <qudt_units>  (20) 
http://www.openphacts.org/units/Nanomolar

>  <record_id>  (20) 
1584079

>  <relation>  (20) 
=

>  <src_id>  (20) 
7

>  <standard_flag>  (20) 
True

>  <standard_relation>  (20) 
=

>  <standard_text_value>  (20) 
nan

>  <standard_type>  (20) 
Ki

>  <standard_units>  (20) 
nM

>  <standard_upper_value>  (20) 
nan

>  <standard_value>  (20) 
3162.28

>  <target_chembl_id>  (20) 
CHEMBL4147

>  <target_organism>  (20) 
Homo sapiens

>  <target_pref_name>  (20) 
CaM kinase II alpha

>  <target_tax_id>  (20) 
9606

>  <text_value>  (20) 
nan

>  <toid>  (20) 
nan

>  <type>  (20) 
pKi

>  <units>  (20) 
nan

>  <uo_units>  (20) 
UO_0000065

>  <upper_value>  (20) 
nan

>  <value>  (20) 
5.5

>  <SMILES>  (20) 
Clc1cc(nc(NC2CCCCC2)n1)c3c[nH]c4ncccc34

>  <NAME>  (20) 
CHEMBL2006439

>  <FILTER>  (20) 
OK

>  <MW>  (20) 
327.819

>  <LogP>  (20) 
4.4179

>  <HBD>  (20) 
2

>  <HBA>  (20) 
4

>  <TPSA>  (20) 
66.49

>  <Label>  (20) 
CAMK2A

$$$$
CHEMBL1982711
     RDKit          2D

 19 21  0  0  0  0  0  0  0  0999 V2000
   -8.0346   -3.5760    0.0000 N   0  0  0  0  0  0  0  0  0  0  0  0
   -6.9199   -4.5797    0.0000 C   0  0  0  0  0  0  0  0  0  0  0  0
   -7.2317   -6.0469    0.0000 O   0  0  0  0  0  0  0  0  0  0  0  0
   -5.4933   -4.1162    0.0000 C   0  0  0  0  0  0  0  0  0  0  0  0
   -5.1814   -2.6490    0.0000 C   0  0  0  0  0  0  0  0  0  0  0  0
   -3.7548   -2.1855    0.0000 C   0  0  0  0  0  0  0  0  0  0  0  0
   -2.6401   -3.1891    0.0000 C   0  0  0  0  0  0  0  0  0  0  0  0
   -2.9520   -4.6564    0.0000 C   0  0  0  0  0  0  0  0  0  0  0  0
   -4.3786   -5.1199    0.0000 C   0  0  0  0  0  0  0  0  0  0  0  0
   -1.2135   -2.7256    0.0000 C   0  0  0  0  0  0  0  0  0  0  0  0
    0.0000   -3.6073    0.0000 C   0  0  0  0  0  0  0  0  0  0  0  0
    1.2135   -2.7256    0.0000 N   0  0  0  0  0  0  0  0  0  0  0  0
    0.7500   -1.2990    0.0000 C   0  0  0  0  0  0  0  0  0  0  0  0
    1.5000    0.0000    0.0000 N   0  0  0  0  0  0  0  0  0  0  0  0
    0.7500    1.2990    0.0000 C   0  0  0  0  0  0  0  0  0  0  0  0
   -0.7500    1.2990    0.0000 C   0  0  0  0  0  0  0  0  0  0  0  0
   -1.5000    0.0000    0.0000 C   0  0  0  0  0  0  0  0  0  0  0  0
   -3.0000    0.0000    0.0000 Cl  0  0  0  0  0  0  0  0  0  0  0  0
   -0.7500   -1.2990    0.0000 C   0  0  0  0  0  0  0  0  0  0  0  0
  1  2  1  0
  2  3  2  0
  2  4  1  0
  4  5  2  0
  5  6  1  0
  6  7  2  0
  7  8  1  0
  8  9  2  0
  7 10  1  0
 10 11  2  0
 11 12  1  0
 12 13  1  0
 13 14  2  0
 14 15  1  0
 15 16  2  0
 16 17  1  0
 17 18  1  0
 17 19  2  0
  9  4  1  0
 19 10  1  0
 19 13  1  0
M  END
>  <activity_comment>  (21) 
active

>  <activity_id>  (21) 
9511348

>  <activity_properties>  (21) 
[]

>  <assay_chembl_id>  (21) 
CHEMBL1964111

>  <assay_description>  (21) 
PUBCHEM_BIOASSAY: Navigating the Kinome. (Class of assay: other) Panel member name: CAMK2A

>  <assay_type>  (21) 
F

>  <bao_endpoint>  (21) 
BAO_0000192

>  <bao_format>  (21) 
BAO_0000019

>  <bao_label>  (21) 
assay format

>  <canonical_smiles>  (21) 
NC(=O)c1ccc(cc1)c2c[nH]c3nccc(Cl)c23

>  <data_validity_comment>  (21) 
nan

>  <data_validity_description>  (21) 
nan

>  <document_chembl_id>  (21) 
CHEMBL1201862

>  <document_journal>  (21) 
nan

>  <document_year>  (21) 
nan

>  <ligand_efficiency>  (21) 
nan

>  <molecule_pref_name>  (21) 
nan

>  <parent_molecule_chembl_id>  (21) 
CHEMBL1982711

>  <pchembl_value>  (21) 
6.1

>  <potential_duplicate>  (21) 
False

>  <qudt_units>  (21) 
http://www.openphacts.org/units/Nanomolar

>  <record_id>  (21) 
1584073

>  <relation>  (21) 
=

>  <src_id>  (21) 
7

>  <standard_flag>  (21) 
True

>  <standard_relation>  (21) 
=

>  <standard_text_value>  (21) 
nan

>  <standard_type>  (21) 
Ki

>  <standard_units>  (21) 
nM

>  <standard_upper_value>  (21) 
nan

>  <standard_value>  (21) 
794.33

>  <target_chembl_id>  (21) 
CHEMBL4147

>  <target_organism>  (21) 
Homo sapiens

>  <target_pref_name>  (21) 
CaM kinase II alpha

>  <target_tax_id>  (21) 
9606

>  <text_value>  (21) 
nan

>  <toid>  (21) 
nan

>  <type>  (21) 
pKi

>  <units>  (21) 
nan

>  <uo_units>  (21) 
UO_0000065

>  <upper_value>  (21) 
nan

>  <value>  (21) 
6.1

>  <SMILES>  (21) 
NC(=O)c1ccc(cc1)c2c[nH]c3nccc(Cl)c23

>  <NAME>  (21) 
CHEMBL1982711

>  <FILTER>  (21) 
OK

>  <MW>  (21) 
271.707

>  <LogP>  (21) 
2.9822

>  <HBD>  (21) 
2

>  <HBA>  (21) 
2

>  <TPSA>  (21) 
71.77

>  <Label>  (21) 
CAMK2A

$$$$
CHEMBL262623
     RDKit          2D

 18 20  0  0  0  0  0  0  0  0999 V2000
   -2.2892    3.4524    0.0000 N   0  0  0  0  0  0  0  0  0  0  0  0
   -0.8268    3.1186    0.0000 C   0  0  0  0  0  0  0  0  0  0  0  0
    0.1935    4.2182    0.0000 N   0  0  0  0  0  0  0  0  0  0  0  0
    1.6559    3.8844    0.0000 C   0  0  0  0  0  0  0  0  0  0  0  0
    2.0980    2.4510    0.0000 N   0  0  0  0  0  0  0  0  0  0  0  0
    1.0777    1.3515    0.0000 C   0  0  0  0  0  0  0  0  0  0  0  0
    1.7286    0.0000    0.0000 N   0  0  0  0  0  0  0  0  0  0  0  0
    1.0777   -1.3515    0.0000 C   0  0  0  0  0  0  0  0  0  0  0  0
   -0.3846   -1.6852    0.0000 C   0  0  0  0  0  0  0  0  0  0  0  0
   -1.5574   -0.7500    0.0000 C   0  0  0  0  0  0  0  0  0  0  0  0
   -1.5574    0.7500    0.0000 N   0  0  0  0  0  0  0  0  0  0  0  0
   -0.3846    1.6852    0.0000 C   0  0  0  0  0  0  0  0  0  0  0  0
   -2.9088   -1.4008    0.0000 C   0  0  0  0  0  0  0  0  0  0  0  0
   -4.1482   -0.5558    0.0000 C   0  0  0  0  0  0  0  0  0  0  0  0
   -5.4997   -1.2067    0.0000 C   0  0  0  0  0  0  0  0  0  0  0  0
   -5.6118   -2.7025    0.0000 C   0  0  0  0  0  0  0  0  0  0  0  0
   -4.3724   -3.5475    0.0000 C   0  0  0  0  0  0  0  0  0  0  0  0
   -3.0209   -2.8966    0.0000 C   0  0  0  0  0  0  0  0  0  0  0  0
  1  2  1  0
  2  3  2  0
  3  4  1  0
  4  5  2  0
  5  6  1  0
  6  7  1  0
  7  8  1  0
  8  9  1  0
  9 10  1  0
 10 11  2  0
 11 12  1  0
 10 13  1  0
 13 14  2  0
 14 15  1  0
 15 16  2  0
 16 17  1  0
 17 18  2  0
 12  2  1  0
 12  6  2  0
 18 13  1  0
M  END
>  <activity_comment>  (22) 
active

>  <activity_id>  (22) 
9511349

>  <activity_properties>  (22) 
[]

>  <assay_chembl_id>  (22) 
CHEMBL1964111

>  <assay_description>  (22) 
PUBCHEM_BIOASSAY: Navigating the Kinome. (Class of assay: other) Panel member name: CAMK2A

>  <assay_type>  (22) 
F

>  <bao_endpoint>  (22) 
BAO_0000192

>  <bao_format>  (22) 
BAO_0000019

>  <bao_label>  (22) 
assay format

>  <canonical_smiles>  (22) 
Nc1ncnc2NCCC(=Nc12)c3ccccc3

>  <data_validity_comment>  (22) 
nan

>  <data_validity_description>  (22) 
nan

>  <document_chembl_id>  (22) 
CHEMBL1201862

>  <document_journal>  (22) 
nan

>  <document_year>  (22) 
nan

>  <ligand_efficiency>  (22) 
nan

>  <molecule_pref_name>  (22) 
nan

>  <parent_molecule_chembl_id>  (22) 
CHEMBL262623

>  <pchembl_value>  (22) 
4.5

>  <potential_duplicate>  (22) 
False

>  <qudt_units>  (22) 
http://www.openphacts.org/units/Nanomolar

>  <record_id>  (22) 
1585390

>  <relation>  (22) 
=

>  <src_id>  (22) 
7

>  <standard_flag>  (22) 
True

>  <standard_relation>  (22) 
=

>  <standard_text_value>  (22) 
nan

>  <standard_type>  (22) 
Ki

>  <standard_units>  (22) 
nM

>  <standard_upper_value>  (22) 
nan

>  <standard_value>  (22) 
31622.78

>  <target_chembl_id>  (22) 
CHEMBL4147

>  <target_organism>  (22) 
Homo sapiens

>  <target_pref_name>  (22) 
CaM kinase II alpha

>  <target_tax_id>  (22) 
9606

>  <text_value>  (22) 
nan

>  <toid>  (22) 
nan

>  <type>  (22) 
pKi

>  <units>  (22) 
nan

>  <uo_units>  (22) 
UO_0000065

>  <upper_value>  (22) 
nan

>  <value>  (22) 
4.5

>  <SMILES>  (22) 
Nc1ncnc2NCCC(=Nc12)c3ccccc3

>  <NAME>  (22) 
CHEMBL262623

>  <FILTER>  (22) 
OK

>  <MW>  (22) 
239.282

>  <LogP>  (22) 
1.9952

>  <HBD>  (22) 
2

>  <HBA>  (22) 
5

>  <TPSA>  (22) 
76.19

>  <Label>  (22) 
CAMK2A

$$$$
CHEMBL2004025
     RDKit          2D

 29 30  0  0  0  0  0  0  0  0999 V2000
    6.0000   -2.5981    0.0000 C   0  0  0  0  0  0  0  0  0  0  0  0
    5.2500   -1.2990    0.0000 O   0  0  0  0  0  0  0  0  0  0  0  0
    3.7500   -1.2990    0.0000 C   0  0  0  0  0  0  0  0  0  0  0  0
    3.0000   -0.0000    0.0000 O   0  0  0  0  0  0  0  0  0  0  0  0
    1.5000    0.0000    0.0000 C   0  0  0  0  0  0  0  0  0  0  0  0
    0.7500   -1.2990    0.0000 C   0  0  0  0  0  0  0  0  0  0  0  0
   -0.7500   -1.2990    0.0000 C   0  0  0  0  0  0  0  0  0  0  0  0
   -1.5000    0.0000    0.0000 C   0  0  0  0  0  0  0  0  0  0  0  0
   -0.7500    1.2990    0.0000 C   0  0  0  0  0  0  0  0  0  0  0  0
   -1.5000    2.5981    0.0000 O   0  0  0  0  0  0  0  0  0  0  0  0
   -3.0000    2.5981    0.0000 C   0  0  0  0  0  0  0  0  0  0  0  0
   -3.7500    3.8971    0.0000 O   0  0  0  0  0  0  0  0  0  0  0  0
   -5.2500    3.8971    0.0000 C   0  0  0  0  0  0  0  0  0  0  0  0
    0.7500    1.2990    0.0000 C   0  0  0  0  0  0  0  0  0  0  0  0
    1.5000    2.5981    0.0000 C   0  0  0  0  0  0  0  0  0  0  0  0
    3.0000    2.5981    0.0000 C   0  0  0  0  0  0  0  0  0  0  0  0
    3.7500    3.8971    0.0000 C   0  0  0  0  0  0  0  0  0  0  0  0
    3.0000    5.1962    0.0000 C   0  0  0  0  0  0  0  0  0  0  0  0
    3.7500    6.4952    0.0000 N   0  0  0  0  0  0  0  0  0  0  0  0
    5.2500    6.4952    0.0000 S   0  0  0  0  0  0  0  0  0  0  0  0
    5.2500    4.9952    0.0000 O   0  0  0  0  0  0  0  0  0  0  0  0
    5.2500    7.9952    0.0000 O   0  0  0  0  0  0  0  0  0  0  0  0
    6.7500    6.4952    0.0000 C   0  0  0  0  0  0  0  0  0  0  0  0
    1.5000    5.1962    0.0000 C   0  0  0  0  0  0  0  0  0  0  0  0
    0.7500    3.8971    0.0000 C   0  0  0  0  0  0  0  0  0  0  0  0
   -0.7500    3.8971    0.0000 C   0  0  0  0  0  0  0  0  0  0  0  0
   -1.3038    3.3237    0.0000 O   0  0  0  0  0  0  0  0  0  0  0  0
   -1.5000    5.1962    0.0000 O   0  0  0  0  0  0  0  0  0  0  0  0
   -3.0000    5.1962    0.0000 C   0  0  0  0  0  0  0  0  0  0  0  0
  1  2  1  0
  2  3  1  0
  3  4  1  0
  4  5  1  0
  5  6  2  0
  6  7  1  0
  7  8  2  0
  8  9  1  0
  9 10  1  0
 10 11  1  0
 11 12  1  0
 12 13  1  0
  9 14  2  0
 14 15  1  0
 15 16  2  0
 16 17  1  0
 17 18  2  0
 18 19  1  0
 19 20  1  0
 20 21  2  0
 20 22  2  0
 20 23  1  0
 18 24  1  0
 24 25  2  0
 25 26  1  0
 26 27  2  0
 26 28  1  0
 28 29  1  0
 14  5  1  0
 25 15  1  0
M  END
>  <activity_comment>  (23) 
active

>  <activity_id>  (23) 
9511354

>  <activity_properties>  (23) 
[]

>  <assay_chembl_id>  (23) 
CHEMBL1964111

>  <assay_description>  (23) 
PUBCHEM_BIOASSAY: Navigating the Kinome. (Class of assay: other) Panel member name: CAMK2A

>  <assay_type>  (23) 
F

>  <bao_endpoint>  (23) 
BAO_0000192

>  <bao_format>  (23) 
BAO_0000019

>  <bao_label>  (23) 
assay format

>  <canonical_smiles>  (23) 
COCOc1cccc(OCOC)c1c2ccc(NS(=O)(=O)C)cc2C(=O)OC

>  <data_validity_comment>  (23) 
nan

>  <data_validity_description>  (23) 
nan

>  <document_chembl_id>  (23) 
CHEMBL1201862

>  <document_journal>  (23) 
nan

>  <document_year>  (23) 
nan

>  <ligand_efficiency>  (23) 
nan

>  <molecule_pref_name>  (23) 
nan

>  <parent_molecule_chembl_id>  (23) 
CHEMBL2004025

>  <pchembl_value>  (23) 
6.0

>  <potential_duplicate>  (23) 
False

>  <qudt_units>  (23) 
http://www.openphacts.org/units/Nanomolar

>  <record_id>  (23) 
1585403

>  <relation>  (23) 
=

>  <src_id>  (23) 
7

>  <standard_flag>  (23) 
True

>  <standard_relation>  (23) 
=

>  <standard_text_value>  (23) 
nan

>  <standard_type>  (23) 
Ki

>  <standard_units>  (23) 
nM

>  <standard_upper_value>  (23) 
nan

>  <standard_value>  (23) 
1000.0

>  <target_chembl_id>  (23) 
CHEMBL4147

>  <target_organism>  (23) 
Homo sapiens

>  <target_pref_name>  (23) 
CaM kinase II alpha

>  <target_tax_id>  (23) 
9606

>  <text_value>  (23) 
nan

>  <toid>  (23) 
nan

>  <type>  (23) 
pKi

>  <units>  (23) 
nan

>  <uo_units>  (23) 
UO_0000065

>  <upper_value>  (23) 
nan

>  <value>  (23) 
6.0

>  <SMILES>  (23) 
COCOc1cccc(OCOC)c1c2ccc(NS(=O)(=O)C)cc2C(=O)OC

>  <NAME>  (23) 
CHEMBL2004025

>  <FILTER>  (23) 
OK

>  <MW>  (23) 
425.459

>  <LogP>  (23) 
2.4771

>  <HBD>  (23) 
1

>  <HBA>  (23) 
8

>  <TPSA>  (23) 
109.39

>  <Label>  (23) 
CAMK2A

$$$$
CHEMBL1995211
     RDKit          2D

 20 22  0  0  0  0  0  0  0  0999 V2000
    5.0490   -0.5490    0.0000 C   0  0  0  0  0  0  0  0  0  0  0  0
    3.7500   -1.2990    0.0000 C   0  0  0  0  0  0  0  0  0  0  0  0
    2.4510   -2.0490    0.0000 C   0  0  0  0  0  0  0  0  0  0  0  0
    4.5000   -2.5981    0.0000 C   0  0  0  0  0  0  0  0  0  0  0  0
    3.0000    0.0000    0.0000 N   0  0  0  0  0  0  0  0  0  0  0  0
    1.5000    0.0000    0.0000 C   0  0  0  0  0  0  0  0  0  0  0  0
    0.7500   -1.2990    0.0000 N   0  0  0  0  0  0  0  0  0  0  0  0
   -0.7500   -1.2990    0.0000 C   0  0  0  0  0  0  0  0  0  0  0  0
   -1.5000    0.0000    0.0000 N   0  0  0  0  0  0  0  0  0  0  0  0
   -0.7500    1.2990    0.0000 C   0  0  0  0  0  0  0  0  0  0  0  0
   -1.2135    2.7256    0.0000 N   0  0  0  0  0  0  0  0  0  0  0  0
   -0.0000    3.6073    0.0000 C   0  0  0  0  0  0  0  0  0  0  0  0
    1.2135    2.7256    0.0000 C   0  0  0  0  0  0  0  0  0  0  0  0
    2.6401    3.1891    0.0000 C   0  0  0  0  0  0  0  0  0  0  0  0
    3.7548    2.1855    0.0000 C   0  0  0  0  0  0  0  0  0  0  0  0
    5.1814    2.6490    0.0000 C   0  0  0  0  0  0  0  0  0  0  0  0
    5.4933    4.1162    0.0000 C   0  0  0  0  0  0  0  0  0  0  0  0
    4.3786    5.1199    0.0000 C   0  0  0  0  0  0  0  0  0  0  0  0
    2.9520    4.6564    0.0000 C   0  0  0  0  0  0  0  0  0  0  0  0
    0.7500    1.2990    0.0000 C   0  0  0  0  0  0  0  0  0  0  0  0
  1  2  1  0
  2  3  1  0
  2  4  1  0
  2  5  1  0
  5  6  1  0
  6  7  2  0
  7  8  1  0
  8  9  2  0
  9 10  1  0
 10 11  1  0
 11 12  1  0
 12 13  2  0
 13 14  1  0
 14 15  2  0
 15 16  1  0
 16 17  2  0
 17 18  1  0
 18 19  2  0
 13 20  1  0
 20  6  1  0
 20 10  2  0
 19 14  1  0
M  END
>  <activity_comment>  (24) 
active

>  <activity_id>  (24) 
9511358

>  <activity_properties>  (24) 
[]

>  <assay_chembl_id>  (24) 
CHEMBL1964111

>  <assay_description>  (24) 
PUBCHEM_BIOASSAY: Navigating the Kinome. (Class of assay: other) Panel member name: CAMK2A

>  <assay_type>  (24) 
F

>  <bao_endpoint>  (24) 
BAO_0000192

>  <bao_format>  (24) 
BAO_0000019

>  <bao_label>  (24) 
assay format

>  <canonical_smiles>  (24) 
CC(C)(C)Nc1ncnc2[nH]cc(c3ccccc3)c12

>  <data_validity_comment>  (24) 
nan

>  <data_validity_description>  (24) 
nan

>  <document_chembl_id>  (24) 
CHEMBL1201862

>  <document_journal>  (24) 
nan

>  <document_year>  (24) 
nan

>  <ligand_efficiency>  (24) 
nan

>  <molecule_pref_name>  (24) 
nan

>  <parent_molecule_chembl_id>  (24) 
CHEMBL1995211

>  <pchembl_value>  (24) 
5.8

>  <potential_duplicate>  (24) 
False

>  <qudt_units>  (24) 
http://www.openphacts.org/units/Nanomolar

>  <record_id>  (24) 
1584089

>  <relation>  (24) 
=

>  <src_id>  (24) 
7

>  <standard_flag>  (24) 
True

>  <standard_relation>  (24) 
=

>  <standard_text_value>  (24) 
nan

>  <standard_type>  (24) 
Ki

>  <standard_units>  (24) 
nM

>  <standard_upper_value>  (24) 
nan

>  <standard_value>  (24) 
1584.89

>  <target_chembl_id>  (24) 
CHEMBL4147

>  <target_organism>  (24) 
Homo sapiens

>  <target_pref_name>  (24) 
CaM kinase II alpha

>  <target_tax_id>  (24) 
9606

>  <text_value>  (24) 
nan

>  <toid>  (24) 
nan

>  <type>  (24) 
pKi

>  <units>  (24) 
nan

>  <uo_units>  (24) 
UO_0000065

>  <upper_value>  (24) 
nan

>  <value>  (24) 
5.8

>  <SMILES>  (24) 
CC(C)(C)Nc1ncnc2[nH]cc(c3ccccc3)c12

>  <NAME>  (24) 
CHEMBL1995211

>  <FILTER>  (24) 
OK

>  <MW>  (24) 
266.348

>  <LogP>  (24) 
3.8353

>  <HBD>  (24) 
2

>  <HBA>  (24) 
3

>  <TPSA>  (24) 
53.6

>  <Label>  (24) 
CAMK2A

$$$$
CHEMBL1971519
     RDKit          2D

 17 19  0  0  0  0  0  0  0  0999 V2000
   -2.6401   -3.1891    0.0000 N   0  0  0  0  0  0  0  0  0  0  0  0
   -1.2135   -2.7256    0.0000 C   0  0  0  0  0  0  0  0  0  0  0  0
   -0.0000   -3.6073    0.0000 N   0  0  0  0  0  0  0  0  0  0  0  0
    1.2135   -2.7256    0.0000 N   0  0  0  0  0  0  0  0  0  0  0  0
    0.7500   -1.2990    0.0000 C   0  0  0  0  0  0  0  0  0  0  0  0
    1.5000    0.0000    0.0000 C   0  0  0  0  0  0  0  0  0  0  0  0
    0.7500    1.2990    0.0000 C   0  0  0  0  0  0  0  0  0  0  0  0
   -0.7500    1.2990    0.0000 C   0  0  0  0  0  0  0  0  0  0  0  0
   -1.5000    0.0000    0.0000 C   0  0  0  0  0  0  0  0  0  0  0  0
   -3.0000    0.0000    0.0000 C   0  0  0  0  0  0  0  0  0  0  0  0
   -3.7500    1.2990    0.0000 C   0  0  0  0  0  0  0  0  0  0  0  0
   -5.2500    1.2990    0.0000 C   0  0  0  0  0  0  0  0  0  0  0  0
   -6.0000    0.0000    0.0000 C   0  0  0  0  0  0  0  0  0  0  0  0
   -7.5000    0.0000    0.0000 F   0  0  0  0  0  0  0  0  0  0  0  0
   -5.2500   -1.2990    0.0000 C   0  0  0  0  0  0  0  0  0  0  0  0
   -3.7500   -1.2990    0.0000 C   0  0  0  0  0  0  0  0  0  0  0  0
   -0.7500   -1.2990    0.0000 C   0  0  0  0  0  0  0  0  0  0  0  0
  1  2  1  0
  2  3  2  0
  3  4  1  0
  4  5  1  0
  5  6  2  0
  6  7  1  0
  7  8  2  0
  8  9  1  0
  9 10  1  0
 10 11  2  0
 11 12  1  0
 12 13  2  0
 13 14  1  0
 13 15  1  0
 15 16  2  0
  9 17  2  0
 17  2  1  0
 17  5  1  0
 16 10  1  0
M  END
>  <activity_comment>  (25) 
active

>  <activity_id>  (25) 
9511365

>  <activity_properties>  (25) 
[]

>  <assay_chembl_id>  (25) 
CHEMBL1964111

>  <assay_description>  (25) 
PUBCHEM_BIOASSAY: Navigating the Kinome. (Class of assay: other) Panel member name: CAMK2A

>  <assay_type>  (25) 
F

>  <bao_endpoint>  (25) 
BAO_0000192

>  <bao_format>  (25) 
BAO_0000019

>  <bao_label>  (25) 
assay format

>  <canonical_smiles>  (25) 
Nc1n[nH]c2cccc(c3ccc(F)cc3)c12

>  <data_validity_comment>  (25) 
nan

>  <data_validity_description>  (25) 
nan

>  <document_chembl_id>  (25) 
CHEMBL1201862

>  <document_journal>  (25) 
nan

>  <document_year>  (25) 
nan

>  <ligand_efficiency>  (25) 
nan

>  <molecule_pref_name>  (25) 
nan

>  <parent_molecule_chembl_id>  (25) 
CHEMBL1971519

>  <pchembl_value>  (25) 
4.6

>  <potential_duplicate>  (25) 
False

>  <qudt_units>  (25) 
http://www.openphacts.org/units/Nanomolar

>  <record_id>  (25) 
1584911

>  <relation>  (25) 
=

>  <src_id>  (25) 
7

>  <standard_flag>  (25) 
True

>  <standard_relation>  (25) 
=

>  <standard_text_value>  (25) 
nan

>  <standard_type>  (25) 
Ki

>  <standard_units>  (25) 
nM

>  <standard_upper_value>  (25) 
nan

>  <standard_value>  (25) 
25118.86

>  <target_chembl_id>  (25) 
CHEMBL4147

>  <target_organism>  (25) 
Homo sapiens

>  <target_pref_name>  (25) 
CaM kinase II alpha

>  <target_tax_id>  (25) 
9606

>  <text_value>  (25) 
nan

>  <toid>  (25) 
nan

>  <type>  (25) 
pKi

>  <units>  (25) 
nan

>  <uo_units>  (25) 
UO_0000065

>  <upper_value>  (25) 
nan

>  <value>  (25) 
4.6

>  <SMILES>  (25) 
Nc1n[nH]c2cccc(c3ccc(F)cc3)c12

>  <NAME>  (25) 
CHEMBL1971519

>  <FILTER>  (25) 
OK

>  <MW>  (25) 
227.242

>  <LogP>  (25) 
2.9512

>  <HBD>  (25) 
2

>  <HBA>  (25) 
2

>  <TPSA>  (25) 
54.7

>  <Label>  (25) 
CAMK2A

$$$$
CHEMBL1991867
     RDKit          2D

 10 11  0  0  0  0  0  0  0  0999 V2000
    2.7760    0.0000    0.0000 N   0  0  0  0  0  0  0  0  0  0  0  0
    1.2760    0.0000    0.0000 C   0  0  0  0  0  0  0  0  0  0  0  0
    0.3943    1.2135    0.0000 N   0  0  0  0  0  0  0  0  0  0  0  0
   -1.0323    0.7500    0.0000 N   0  0  0  0  0  0  0  0  0  0  0  0
   -1.0323   -0.7500    0.0000 C   0  0  0  0  0  0  0  0  0  0  0  0
   -1.9140   -1.9635    0.0000 N   0  0  0  0  0  0  0  0  0  0  0  0
   -1.0323   -3.1771    0.0000 C   0  0  0  0  0  0  0  0  0  0  0  0
   -1.4958   -4.6036    0.0000 Cl  0  0  0  0  0  0  0  0  0  0  0  0
    0.3943   -2.7135    0.0000 S   0  0  0  0  0  0  0  0  0  0  0  0
    0.3943   -1.2135    0.0000 C   0  0  0  0  0  0  0  0  0  0  0  0
  1  2  1  0
  2  3  2  0
  3  4  1  0
  4  5  1  0
  5  6  1  0
  6  7  2  0
  7  8  1  0
  7  9  1  0
  9 10  1  0
 10  2  1  0
 10  5  2  0
M  END
>  <activity_comment>  (26) 
active

>  <activity_id>  (26) 
9511373

>  <activity_properties>  (26) 
[]

>  <assay_chembl_id>  (26) 
CHEMBL1964111

>  <assay_description>  (26) 
PUBCHEM_BIOASSAY: Navigating the Kinome. (Class of assay: other) Panel member name: CAMK2A

>  <assay_type>  (26) 
F

>  <bao_endpoint>  (26) 
BAO_0000192

>  <bao_format>  (26) 
BAO_0000019

>  <bao_label>  (26) 
assay format

>  <canonical_smiles>  (26) 
Nc1n[nH]c2nc(Cl)sc12

>  <data_validity_comment>  (26) 
nan

>  <data_validity_description>  (26) 
nan

>  <document_chembl_id>  (26) 
CHEMBL1201862

>  <document_journal>  (26) 
nan

>  <document_year>  (26) 
nan

>  <ligand_efficiency>  (26) 
nan

>  <molecule_pref_name>  (26) 
nan

>  <parent_molecule_chembl_id>  (26) 
CHEMBL1991867

>  <pchembl_value>  (26) 
4.2

>  <potential_duplicate>  (26) 
False

>  <qudt_units>  (26) 
http://www.openphacts.org/units/Nanomolar

>  <record_id>  (26) 
1585493

>  <relation>  (26) 
=

>  <src_id>  (26) 
7

>  <standard_flag>  (26) 
True

>  <standard_relation>  (26) 
=

>  <standard_text_value>  (26) 
nan

>  <standard_type>  (26) 
Ki

>  <standard_units>  (26) 
nM

>  <standard_upper_value>  (26) 
nan

>  <standard_value>  (26) 
63095.73

>  <target_chembl_id>  (26) 
CHEMBL4147

>  <target_organism>  (26) 
Homo sapiens

>  <target_pref_name>  (26) 
CaM kinase II alpha

>  <target_tax_id>  (26) 
9606

>  <text_value>  (26) 
nan

>  <toid>  (26) 
nan

>  <type>  (26) 
pKi

>  <units>  (26) 
nan

>  <uo_units>  (26) 
UO_0000065

>  <upper_value>  (26) 
nan

>  <value>  (26) 
4.2

>  <SMILES>  (26) 
Nc1n[nH]c2nc(Cl)sc12

>  <NAME>  (26) 
CHEMBL1991867

>  <FILTER>  (26) 
OK

>  <MW>  (26) 
174.616

>  <LogP>  (26) 
1.255

>  <HBD>  (26) 
2

>  <HBA>  (26) 
4

>  <TPSA>  (26) 
67.59

>  <Label>  (26) 
CAMK2A

$$$$
CHEMBL1972355
     RDKit          2D

 24 27  0  0  0  0  0  0  0  0999 V2000
    3.7500   -1.2990    0.0000 C   0  0  0  0  0  0  0  0  0  0  0  0
    3.0000   -2.5981    0.0000 O   0  0  0  0  0  0  0  0  0  0  0  0
    1.5000   -2.5981    0.0000 C   0  0  0  0  0  0  0  0  0  0  0  0
    0.7500   -1.2990    0.0000 C   0  0  0  0  0  0  0  0  0  0  0  0
    1.5000    0.0000    0.0000 C   0  0  0  0  0  0  0  0  0  0  0  0
    3.0000    0.0000    0.0000 O   0  0  0  0  0  0  0  0  0  0  0  0
    0.7500    1.2990    0.0000 C   0  0  0  0  0  0  0  0  0  0  0  0
   -0.7500    1.2990    0.0000 C   0  0  0  0  0  0  0  0  0  0  0  0
   -1.5000    2.5981    0.0000 C   0  0  0  0  0  0  0  0  0  0  0  0
   -1.5000    0.0000    0.0000 O   0  0  0  0  0  0  0  0  0  0  0  0
   -0.7500   -1.2990    0.0000 C   0  0  0  0  0  0  0  0  0  0  0  0
   -1.5000   -2.5981    0.0000 C   0  0  0  0  0  0  0  0  0  0  0  0
   -0.7500   -3.8971    0.0000 C   0  0  0  0  0  0  0  0  0  0  0  0
   -1.5000   -5.1962    0.0000 O   0  0  0  0  0  0  0  0  0  0  0  0
    0.7500   -3.8971    0.0000 C   0  0  0  0  0  0  0  0  0  0  0  0
    1.5000   -5.1962    0.0000 C   0  0  0  0  0  0  0  0  0  0  0  0
    0.8899   -6.5665    0.0000 N   0  0  0  0  0  0  0  0  0  0  0  0
    2.0046   -7.5702    0.0000 C   0  0  0  0  0  0  0  0  0  0  0  0
    2.0046   -9.0702    0.0000 C   0  0  0  0  0  0  0  0  0  0  0  0
    3.3037   -9.8202    0.0000 C   0  0  0  0  0  0  0  0  0  0  0  0
    4.6027   -9.0702    0.0000 C   0  0  0  0  0  0  0  0  0  0  0  0
    4.6027   -7.5702    0.0000 C   0  0  0  0  0  0  0  0  0  0  0  0
    3.3037   -6.8202    0.0000 C   0  0  0  0  0  0  0  0  0  0  0  0
    2.9918   -5.3529    0.0000 N   0  0  0  0  0  0  0  0  0  0  0  0
  1  2  1  0
  2  3  1  0
  3  4  2  0
  4  5  1  0
  5  6  2  0
  5  7  1  0
  7  8  2  0
  8  9  1  0
  8 10  1  0
 10 11  1  0
 11 12  2  0
 12 13  1  0
 13 14  1  0
 13 15  2  0
 15 16  1  0
 16 17  2  0
 17 18  1  0
 18 19  2  0
 19 20  1  0
 20 21  2  0
 21 22  1  0
 22 23  2  0
 23 24  1  0
 15  3  1  0
 11  4  1  0
 24 16  1  0
 23 18  1  0
M  END
>  <activity_comment>  (27) 
active

>  <activity_id>  (27) 
9511375

>  <activity_properties>  (27) 
[]

>  <assay_chembl_id>  (27) 
CHEMBL1964111

>  <assay_description>  (27) 
PUBCHEM_BIOASSAY: Navigating the Kinome. (Class of assay: other) Panel member name: CAMK2A

>  <assay_type>  (27) 
F

>  <bao_endpoint>  (27) 
BAO_0000192

>  <bao_format>  (27) 
BAO_0000019

>  <bao_label>  (27) 
assay format

>  <canonical_smiles>  (27) 
COc1c2C(=O)C=C(C)Oc2cc(O)c1c3nc4ccccc4[nH]3

>  <data_validity_comment>  (27) 
nan

>  <data_validity_description>  (27) 
nan

>  <document_chembl_id>  (27) 
CHEMBL1201862

>  <document_journal>  (27) 
nan

>  <document_year>  (27) 
nan

>  <ligand_efficiency>  (27) 
nan

>  <molecule_pref_name>  (27) 
nan

>  <parent_molecule_chembl_id>  (27) 
CHEMBL1972355

>  <pchembl_value>  (27) 
6.0

>  <potential_duplicate>  (27) 
False

>  <qudt_units>  (27) 
http://www.openphacts.org/units/Nanomolar

>  <record_id>  (27) 
1585486

>  <relation>  (27) 
=

>  <src_id>  (27) 
7

>  <standard_flag>  (27) 
True

>  <standard_relation>  (27) 
=

>  <standard_text_value>  (27) 
nan

>  <standard_type>  (27) 
Ki

>  <standard_units>  (27) 
nM

>  <standard_upper_value>  (27) 
nan

>  <standard_value>  (27) 
1000.0

>  <target_chembl_id>  (27) 
CHEMBL4147

>  <target_organism>  (27) 
Homo sapiens

>  <target_pref_name>  (27) 
CaM kinase II alpha

>  <target_tax_id>  (27) 
9606

>  <text_value>  (27) 
nan

>  <toid>  (27) 
nan

>  <type>  (27) 
pKi

>  <units>  (27) 
nan

>  <uo_units>  (27) 
UO_0000065

>  <upper_value>  (27) 
nan

>  <value>  (27) 
6.0

>  <SMILES>  (27) 
COc1c2C(=O)C=C(C)Oc2cc(O)c1c3nc4ccccc4[nH]3

>  <NAME>  (27) 
CHEMBL1972355

>  <FILTER>  (27) 
OK

>  <MW>  (27) 
322.32

>  <LogP>  (27) 
3.35892

>  <HBD>  (27) 
2

>  <HBA>  (27) 
5

>  <TPSA>  (27) 
88.35

>  <Label>  (27) 
CAMK2A

$$$$
CHEMBL2001641
     RDKit          2D

 18 20  0  0  0  0  0  0  0  0999 V2000
   -6.8157    3.8768    0.0000 C   0  0  0  0  0  0  0  0  0  0  0  0
   -6.6589    5.3686    0.0000 C   0  0  0  0  0  0  0  0  0  0  0  0
   -6.5021    6.8604    0.0000 C   0  0  0  0  0  0  0  0  0  0  0  0
   -8.1506    5.5254    0.0000 O   0  0  0  0  0  0  0  0  0  0  0  0
   -5.1671    5.2118    0.0000 C   0  0  0  0  0  0  0  0  0  0  0  0
   -4.4171    3.9127    0.0000 C   0  0  0  0  0  0  0  0  0  0  0  0
   -2.9499    4.2246    0.0000 N   0  0  0  0  0  0  0  0  0  0  0  0
   -2.7931    5.7164    0.0000 N   0  0  0  0  0  0  0  0  0  0  0  0
   -4.1634    6.3265    0.0000 N   0  0  0  0  0  0  0  0  0  0  0  0
   -1.8351    3.2209    0.0000 C   0  0  0  0  0  0  0  0  0  0  0  0
   -0.4086    3.6844    0.0000 C   0  0  0  0  0  0  0  0  0  0  0  0
    0.7062    2.6807    0.0000 C   0  0  0  0  0  0  0  0  0  0  0  0
    0.3943    1.2135    0.0000 C   0  0  0  0  0  0  0  0  0  0  0  0
    1.2760    0.0000    0.0000 N   0  0  0  0  0  0  0  0  0  0  0  0
    0.3943   -1.2135    0.0000 N   0  0  0  0  0  0  0  0  0  0  0  0
   -1.0323   -0.7500    0.0000 C   0  0  0  0  0  0  0  0  0  0  0  0
   -1.0323    0.7500    0.0000 C   0  0  0  0  0  0  0  0  0  0  0  0
   -2.1470    1.7537    0.0000 C   0  0  0  0  0  0  0  0  0  0  0  0
  1  2  1  0
  2  3  1  0
  2  4  1  0
  2  5  1  0
  5  6  2  0
  6  7  1  0
  7  8  1  0
  8  9  2  0
  7 10  1  0
 10 11  2  0
 11 12  1  0
 12 13  2  0
 13 14  1  0
 14 15  1  0
 15 16  2  0
 16 17  1  0
 17 18  2  0
  9  5  1  0
 18 10  1  0
 17 13  1  0
M  END
>  <activity_comment>  (28) 
active

>  <activity_id>  (28) 
9511377

>  <activity_properties>  (28) 
[]

>  <assay_chembl_id>  (28) 
CHEMBL1964111

>  <assay_description>  (28) 
PUBCHEM_BIOASSAY: Navigating the Kinome. (Class of assay: other) Panel member name: CAMK2A

>  <assay_type>  (28) 
F

>  <bao_endpoint>  (28) 
BAO_0000192

>  <bao_format>  (28) 
BAO_0000019

>  <bao_label>  (28) 
assay format

>  <canonical_smiles>  (28) 
CC(C)(O)c1cn(nn1)c2ccc3[nH]ncc3c2

>  <data_validity_comment>  (28) 
nan

>  <data_validity_description>  (28) 
nan

>  <document_chembl_id>  (28) 
CHEMBL1201862

>  <document_journal>  (28) 
nan

>  <document_year>  (28) 
nan

>  <ligand_efficiency>  (28) 
nan

>  <molecule_pref_name>  (28) 
nan

>  <parent_molecule_chembl_id>  (28) 
CHEMBL2001641

>  <pchembl_value>  (28) 
4.2

>  <potential_duplicate>  (28) 
False

>  <qudt_units>  (28) 
http://www.openphacts.org/units/Nanomolar

>  <record_id>  (28) 
1585177

>  <relation>  (28) 
=

>  <src_id>  (28) 
7

>  <standard_flag>  (28) 
True

>  <standard_relation>  (28) 
=

>  <standard_text_value>  (28) 
nan

>  <standard_type>  (28) 
Ki

>  <standard_units>  (28) 
nM

>  <standard_upper_value>  (28) 
nan

>  <standard_value>  (28) 
63095.73

>  <target_chembl_id>  (28) 
CHEMBL4147

>  <target_organism>  (28) 
Homo sapiens

>  <target_pref_name>  (28) 
CaM kinase II alpha

>  <target_tax_id>  (28) 
9606

>  <text_value>  (28) 
nan

>  <toid>  (28) 
nan

>  <type>  (28) 
pKi

>  <units>  (28) 
nan

>  <uo_units>  (28) 
UO_0000065

>  <upper_value>  (28) 
nan

>  <value>  (28) 
4.2

>  <SMILES>  (28) 
CC(C)(O)c1cn(nn1)c2ccc3[nH]ncc3c2

>  <NAME>  (28) 
CHEMBL2001641

>  <FILTER>  (28) 
OK

>  <MW>  (28) 
243.27

>  <LogP>  (28) 
1.371

>  <HBD>  (28) 
2

>  <HBA>  (28) 
5

>  <TPSA>  (28) 
79.62

>  <Label>  (28) 
CAMK2A

$$$$
CHEMBL1997193
     RDKit          2D

 23 25  0  0  0  0  0  0  0  0999 V2000
    1.8478   -6.4639    0.0000 C   0  0  0  0  0  0  0  0  0  0  0  0
    2.0046   -4.9721    0.0000 C   0  0  0  0  0  0  0  0  0  0  0  0
    3.3037   -4.2221    0.0000 C   0  0  0  0  0  0  0  0  0  0  0  0
    2.9918   -2.7549    0.0000 C   0  0  0  0  0  0  0  0  0  0  0  0
    1.5000   -2.5981    0.0000 C   0  0  0  0  0  0  0  0  0  0  0  0
    0.8899   -3.9684    0.0000 S   0  0  0  0  0  0  0  0  0  0  0  0
    0.7500   -1.2990    0.0000 C   0  0  0  0  0  0  0  0  0  0  0  0
    1.5000    0.0000    0.0000 C   0  0  0  0  0  0  0  0  0  0  0  0
    3.0000    0.0000    0.0000 C   0  0  0  0  0  0  0  0  0  0  0  0
    4.5000    0.0000    0.0000 N   0  0  0  0  0  0  0  0  0  0  0  0
    0.7500    1.2990    0.0000 C   0  0  0  0  0  0  0  0  0  0  0  0
    1.5000    2.5981    0.0000 O   0  0  0  0  0  0  0  0  0  0  0  0
   -0.7500    1.2990    0.0000 N   0  0  0  0  0  0  0  0  0  0  0  0
   -1.5000    0.0000    0.0000 C   0  0  0  0  0  0  0  0  0  0  0  0
   -0.7500   -1.2990    0.0000 C   0  0  0  0  0  0  0  0  0  0  0  0
   -3.0000    0.0000    0.0000 C   0  0  0  0  0  0  0  0  0  0  0  0
   -3.7500    1.2990    0.0000 C   0  0  0  0  0  0  0  0  0  0  0  0
   -5.2500    1.2990    0.0000 C   0  0  0  0  0  0  0  0  0  0  0  0
   -6.0000    2.5981    0.0000 Br  0  0  0  0  0  0  0  0  0  0  0  0
   -6.0000    0.0000    0.0000 C   0  0  0  0  0  0  0  0  0  0  0  0
   -5.2500   -1.2990    0.0000 C   0  0  0  0  0  0  0  0  0  0  0  0
   -3.7500   -1.2990    0.0000 C   0  0  0  0  0  0  0  0  0  0  0  0
   -3.0000   -2.5981    0.0000 O   0  0  0  0  0  0  0  0  0  0  0  0
  1  2  1  0
  2  3  2  0
  3  4  1  0
  4  5  2  0
  5  6  1  0
  5  7  1  0
  7  8  2  0
  8  9  1  0
  9 10  3  0
  8 11  1  0
 11 12  2  0
 11 13  1  0
 13 14  1  0
 14 15  2  0
 14 16  1  0
 16 17  2  0
 17 18  1  0
 18 19  1  0
 18 20  2  0
 20 21  1  0
 21 22  2  0
 22 23  1  0
  6  2  1  0
 15  7  1  0
 22 16  1  0
M  END
>  <activity_comment>  (29) 
active

>  <activity_id>  (29) 
9511379

>  <activity_properties>  (29) 
[]

>  <assay_chembl_id>  (29) 
CHEMBL1964111

>  <assay_description>  (29) 
PUBCHEM_BIOASSAY: Navigating the Kinome. (Class of assay: other) Panel member name: CAMK2A

>  <assay_type>  (29) 
F

>  <bao_endpoint>  (29) 
BAO_0000192

>  <bao_format>  (29) 
BAO_0000019

>  <bao_label>  (29) 
assay format

>  <canonical_smiles>  (29) 
Cc1ccc(s1)C2=C(C#N)C(=O)NC(=C2)c3cc(Br)ccc3O

>  <data_validity_comment>  (29) 
nan

>  <data_validity_description>  (29) 
nan

>  <document_chembl_id>  (29) 
CHEMBL1201862

>  <document_journal>  (29) 
nan

>  <document_year>  (29) 
nan

>  <ligand_efficiency>  (29) 
nan

>  <molecule_pref_name>  (29) 
nan

>  <parent_molecule_chembl_id>  (29) 
CHEMBL1997193

>  <pchembl_value>  (29) 
5.8

>  <potential_duplicate>  (29) 
False

>  <qudt_units>  (29) 
http://www.openphacts.org/units/Nanomolar

>  <record_id>  (29) 
1585108

>  <relation>  (29) 
=

>  <src_id>  (29) 
7

>  <standard_flag>  (29) 
True

>  <standard_relation>  (29) 
=

>  <standard_text_value>  (29) 
nan

>  <standard_type>  (29) 
Ki

>  <standard_units>  (29) 
nM

>  <standard_upper_value>  (29) 
nan

>  <standard_value>  (29) 
1584.89

>  <target_chembl_id>  (29) 
CHEMBL4147

>  <target_organism>  (29) 
Homo sapiens

>  <target_pref_name>  (29) 
CaM kinase II alpha

>  <target_tax_id>  (29) 
9606

>  <text_value>  (29) 
nan

>  <toid>  (29) 
nan

>  <type>  (29) 
pKi

>  <units>  (29) 
nan

>  <uo_units>  (29) 
UO_0000065

>  <upper_value>  (29) 
nan

>  <value>  (29) 
5.8

>  <SMILES>  (29) 
Cc1ccc(s1)C2=C(C#N)C(=O)NC(=C2)c3cc(Br)ccc3O

>  <NAME>  (29) 
CHEMBL1997193

>  <FILTER>  (29) 
OK

>  <MW>  (29) 
387.258

>  <LogP>  (29) 
4.4186

>  <HBD>  (29) 
2

>  <HBA>  (29) 
4

>  <TPSA>  (29) 
76.88

>  <Label>  (29) 
CAMK2A

$$$$
CHEMBL1983715
     RDKit          2D

 31 34  0  0  0  0  0  0  0  0999 V2000
    0.3207   -8.5658    0.0000 C   0  0  0  0  0  0  0  0  0  0  0  0
    0.4775   -7.0740    0.0000 C   0  0  0  0  0  0  0  0  0  0  0  0
    1.8478   -6.4639    0.0000 N   0  0  0  0  0  0  0  0  0  0  0  0
    2.0046   -4.9721    0.0000 C   0  0  0  0  0  0  0  0  0  0  0  0
    3.3037   -4.2221    0.0000 N   0  0  0  0  0  0  0  0  0  0  0  0
    2.9918   -2.7549    0.0000 C   0  0  0  0  0  0  0  0  0  0  0  0
    3.9955   -1.6402    0.0000 C   0  0  0  0  0  0  0  0  0  0  0  0
    1.5000   -2.5981    0.0000 C   0  0  0  0  0  0  0  0  0  0  0  0
    0.8899   -3.9684    0.0000 S   0  0  0  0  0  0  0  0  0  0  0  0
    0.7500   -1.2990    0.0000 C   0  0  0  0  0  0  0  0  0  0  0  0
    1.5000    0.0000    0.0000 C   0  0  0  0  0  0  0  0  0  0  0  0
    0.7500    1.2990    0.0000 C   0  0  0  0  0  0  0  0  0  0  0  0
   -0.7500    1.2990    0.0000 N   0  0  0  0  0  0  0  0  0  0  0  0
   -1.5000    0.0000    0.0000 C   0  0  0  0  0  0  0  0  0  0  0  0
   -3.0000    0.0000    0.0000 N   0  0  0  0  0  0  0  0  0  0  0  0
   -3.7500    1.2990    0.0000 C   0  0  0  0  0  0  0  0  0  0  0  0
   -3.0000    2.5981    0.0000 C   0  0  0  0  0  0  0  0  0  0  0  0
   -3.7500    3.8971    0.0000 C   0  0  0  0  0  0  0  0  0  0  0  0
   -5.2500    3.8971    0.0000 C   0  0  0  0  0  0  0  0  0  0  0  0
   -6.0000    2.5981    0.0000 C   0  0  0  0  0  0  0  0  0  0  0  0
   -5.2500    1.2990    0.0000 C   0  0  0  0  0  0  0  0  0  0  0  0
   -6.0000    5.1962    0.0000 N   0  0  0  0  0  0  0  0  0  0  0  0
   -5.2500    6.4952    0.0000 C   0  0  0  0  0  0  0  0  0  0  0  0
   -6.0000    7.7942    0.0000 C   0  0  0  0  0  0  0  0  0  0  0  0
   -7.5000    7.7942    0.0000 N   0  0  0  0  0  0  0  0  0  0  0  0
   -8.2500    6.4952    0.0000 C   0  0  0  0  0  0  0  0  0  0  0  0
   -7.5000    5.1962    0.0000 C   0  0  0  0  0  0  0  0  0  0  0  0
   -8.2500    9.0933    0.0000 C   0  0  0  0  0  0  0  0  0  0  0  0
   -9.7500    9.0933    0.0000 O   0  0  0  0  0  0  0  0  0  0  0  0
   -7.5000   10.3923    0.0000 C   0  0  0  0  0  0  0  0  0  0  0  0
   -0.7500   -1.2990    0.0000 N   0  0  0  0  0  0  0  0  0  0  0  0
  1  2  1  0
  2  3  1  0
  3  4  1  0
  4  5  2  0
  5  6  1  0
  6  7  1  0
  6  8  2  0
  8  9  1  0
  8 10  1  0
 10 11  2  0
 11 12  1  0
 12 13  2  0
 13 14  1  0
 14 15  1  0
 15 16  1  0
 16 17  2  0
 17 18  1  0
 18 19  2  0
 19 20  1  0
 20 21  2  0
 19 22  1  0
 22 23  1  0
 23 24  1  0
 24 25  1  0
 25 26  1  0
 26 27  1  0
 25 28  1  0
 28 29  2  0
 28 30  1  0
 14 31  2  0
  9  4  1  0
 31 10  1  0
 21 16  1  0
 27 22  1  0
M  END
>  <activity_comment>  (30) 
active

>  <activity_id>  (30) 
9511386

>  <activity_properties>  (30) 
[]

>  <assay_chembl_id>  (30) 
CHEMBL1964111

>  <assay_description>  (30) 
PUBCHEM_BIOASSAY: Navigating the Kinome. (Class of assay: other) Panel member name: CAMK2A

>  <assay_type>  (30) 
F

>  <bao_endpoint>  (30) 
BAO_0000192

>  <bao_format>  (30) 
BAO_0000019

>  <bao_label>  (30) 
assay format

>  <canonical_smiles>  (30) 
CCNc1nc(C)c(s1)c2ccnc(Nc3ccc(cc3)N4CCN(CC4)C(=O)C)n2

>  <data_validity_comment>  (30) 
nan

>  <data_validity_description>  (30) 
nan

>  <document_chembl_id>  (30) 
CHEMBL1201862

>  <document_journal>  (30) 
nan

>  <document_year>  (30) 
nan

>  <ligand_efficiency>  (30) 
nan

>  <molecule_pref_name>  (30) 
nan

>  <parent_molecule_chembl_id>  (30) 
CHEMBL1983715

>  <pchembl_value>  (30) 
5.7

>  <potential_duplicate>  (30) 
False

>  <qudt_units>  (30) 
http://www.openphacts.org/units/Nanomolar

>  <record_id>  (30) 
1584286

>  <relation>  (30) 
=

>  <src_id>  (30) 
7

>  <standard_flag>  (30) 
True

>  <standard_relation>  (30) 
=

>  <standard_text_value>  (30) 
nan

>  <standard_type>  (30) 
Ki

>  <standard_units>  (30) 
nM

>  <standard_upper_value>  (30) 
nan

>  <standard_value>  (30) 
1995.26

>  <target_chembl_id>  (30) 
CHEMBL4147

>  <target_organism>  (30) 
Homo sapiens

>  <target_pref_name>  (30) 
CaM kinase II alpha

>  <target_tax_id>  (30) 
9606

>  <text_value>  (30) 
nan

>  <toid>  (30) 
nan

>  <type>  (30) 
pKi

>  <units>  (30) 
nan

>  <uo_units>  (30) 
UO_0000065

>  <upper_value>  (30) 
nan

>  <value>  (30) 
5.7

>  <SMILES>  (30) 
CCNc1nc(C)c(s1)c2ccnc(Nc3ccc(cc3)N4CCN(CC4)C(=O)C)n2

>  <NAME>  (30) 
CHEMBL1983715

>  <FILTER>  (30) 
OK

>  <MW>  (30) 
437.573

>  <LogP>  (30) 
3.75242

>  <HBD>  (30) 
2

>  <HBA>  (30) 
8

>  <TPSA>  (30) 
86.28

>  <Label>  (30) 
CAMK2A

$$$$
CHEMBL2002992
     RDKit          2D

 21 23  0  0  0  0  0  0  0  0999 V2000
  -11.5094    1.4435    0.0000 C   0  0  0  0  0  0  0  0  0  0  0  0
  -10.3946    0.4398    0.0000 C   0  0  0  0  0  0  0  0  0  0  0  0
  -10.7065   -1.0275    0.0000 N   0  0  0  0  0  0  0  0  0  0  0  0
   -8.9681    0.9033    0.0000 C   0  0  0  0  0  0  0  0  0  0  0  0
   -8.6562    2.3705    0.0000 C   0  0  0  0  0  0  0  0  0  0  0  0
   -7.2296    2.8340    0.0000 C   0  0  0  0  0  0  0  0  0  0  0  0
   -6.1149    1.8303    0.0000 C   0  0  0  0  0  0  0  0  0  0  0  0
   -6.4268    0.3631    0.0000 C   0  0  0  0  0  0  0  0  0  0  0  0
   -7.8533   -0.1004    0.0000 C   0  0  0  0  0  0  0  0  0  0  0  0
   -4.6883    2.2939    0.0000 C   0  0  0  0  0  0  0  0  0  0  0  0
   -4.3764    3.7611    0.0000 O   0  0  0  0  0  0  0  0  0  0  0  0
   -3.5736    1.2902    0.0000 N   0  0  0  0  0  0  0  0  0  0  0  0
   -2.1470    1.7537    0.0000 C   0  0  0  0  0  0  0  0  0  0  0  0
   -1.8351    3.2209    0.0000 C   0  0  0  0  0  0  0  0  0  0  0  0
   -0.4086    3.6844    0.0000 C   0  0  0  0  0  0  0  0  0  0  0  0
    0.7062    2.6807    0.0000 N   0  0  0  0  0  0  0  0  0  0  0  0
    0.3943    1.2135    0.0000 C   0  0  0  0  0  0  0  0  0  0  0  0
    1.2760    0.0000    0.0000 N   0  0  0  0  0  0  0  0  0  0  0  0
    0.3943   -1.2135    0.0000 C   0  0  0  0  0  0  0  0  0  0  0  0
   -1.0323   -0.7500    0.0000 C   0  0  0  0  0  0  0  0  0  0  0  0
   -1.0323    0.7500    0.0000 C   0  0  0  0  0  0  0  0  0  0  0  0
  1  2  1  0
  2  3  1  0
  2  4  1  0
  4  5  1  0
  5  6  1  0
  6  7  1  0
  7  8  1  0
  8  9  1  0
  7 10  1  0
 10 11  2  0
 10 12  1  0
 12 13  1  0
 13 14  2  0
 14 15  1  0
 15 16  2  0
 16 17  1  0
 17 18  1  0
 18 19  1  0
 19 20  2  0
 20 21  1  0
  9  4  1  0
 21 13  1  0
 21 17  2  0
M  END
>  <activity_comment>  (31) 
active

>  <activity_id>  (31) 
9511389

>  <activity_properties>  (31) 
[]

>  <assay_chembl_id>  (31) 
CHEMBL1964111

>  <assay_description>  (31) 
PUBCHEM_BIOASSAY: Navigating the Kinome. (Class of assay: other) Panel member name: CAMK2A

>  <assay_type>  (31) 
F

>  <bao_endpoint>  (31) 
BAO_0000192

>  <bao_format>  (31) 
BAO_0000019

>  <bao_label>  (31) 
assay format

>  <canonical_smiles>  (31) 
CC(N)C1CCC(CC1)C(=O)Nc2ccnc3[nH]ccc23

>  <data_validity_comment>  (31) 
nan

>  <data_validity_description>  (31) 
nan

>  <document_chembl_id>  (31) 
CHEMBL1201862

>  <document_journal>  (31) 
nan

>  <document_year>  (31) 
nan

>  <ligand_efficiency>  (31) 
nan

>  <molecule_pref_name>  (31) 
nan

>  <parent_molecule_chembl_id>  (31) 
CHEMBL2002992

>  <pchembl_value>  (31) 
5.4

>  <potential_duplicate>  (31) 
False

>  <qudt_units>  (31) 
http://www.openphacts.org/units/Nanomolar

>  <record_id>  (31) 
1585496

>  <relation>  (31) 
=

>  <src_id>  (31) 
7

>  <standard_flag>  (31) 
True

>  <standard_relation>  (31) 
=

>  <standard_text_value>  (31) 
nan

>  <standard_type>  (31) 
Ki

>  <standard_units>  (31) 
nM

>  <standard_upper_value>  (31) 
nan

>  <standard_value>  (31) 
3981.07

>  <target_chembl_id>  (31) 
CHEMBL4147

>  <target_organism>  (31) 
Homo sapiens

>  <target_pref_name>  (31) 
CaM kinase II alpha

>  <target_tax_id>  (31) 
9606

>  <text_value>  (31) 
nan

>  <toid>  (31) 
nan

>  <type>  (31) 
pKi

>  <units>  (31) 
nan

>  <uo_units>  (31) 
UO_0000065

>  <upper_value>  (31) 
nan

>  <value>  (31) 
5.4

>  <SMILES>  (31) 
CC(N)C1CCC(CC1)C(=O)Nc2ccnc3[nH]ccc23

>  <NAME>  (31) 
CHEMBL2002992

>  <FILTER>  (31) 
OK

>  <MW>  (31) 
286.379

>  <LogP>  (31) 
2.655

>  <HBD>  (31) 
3

>  <HBA>  (31) 
3

>  <TPSA>  (31) 
83.8

>  <Label>  (31) 
CAMK2A

$$$$
CHEMBL1977931
     RDKit          2D

 18 20  0  0  0  0  0  0  0  0999 V2000
   -3.0826   -2.6480    0.0000 C   0  0  0  0  0  0  0  0  0  0  0  0
   -2.7707   -1.1807    0.0000 C   0  0  0  0  0  0  0  0  0  0  0  0
   -1.3442   -0.7172    0.0000 O   0  0  0  0  0  0  0  0  0  0  0  0
   -3.8855   -0.1771    0.0000 C   0  0  0  0  0  0  0  0  0  0  0  0
   -5.3120   -0.6406    0.0000 C   0  0  0  0  0  0  0  0  0  0  0  0
   -6.4268    0.3631    0.0000 C   0  0  0  0  0  0  0  0  0  0  0  0
   -6.1149    1.8303    0.0000 C   0  0  0  0  0  0  0  0  0  0  0  0
   -4.6883    2.2939    0.0000 C   0  0  0  0  0  0  0  0  0  0  0  0
   -3.5736    1.2902    0.0000 C   0  0  0  0  0  0  0  0  0  0  0  0
   -2.1470    1.7537    0.0000 C   0  0  0  0  0  0  0  0  0  0  0  0
   -1.0323    0.7500    0.0000 N   0  0  0  0  0  0  0  0  0  0  0  0
    0.3943    1.2135    0.0000 C   0  0  0  0  0  0  0  0  0  0  0  0
    0.7062    2.6807    0.0000 N   0  0  0  0  0  0  0  0  0  0  0  0
   -0.4086    3.6844    0.0000 C   0  0  0  0  0  0  0  0  0  0  0  0
   -0.4086    5.1844    0.0000 N   0  0  0  0  0  0  0  0  0  0  0  0
   -1.8351    5.6480    0.0000 C   0  0  0  0  0  0  0  0  0  0  0  0
   -2.7168    4.4344    0.0000 C   0  0  0  0  0  0  0  0  0  0  0  0
   -1.8351    3.2209    0.0000 C   0  0  0  0  0  0  0  0  0  0  0  0
  1  2  1  0
  2  3  2  0
  2  4  1  0
  4  5  2  0
  5  6  1  0
  6  7  2  0
  7  8  1  0
  8  9  2  0
  9 10  1  0
 10 11  2  0
 11 12  1  0
 12 13  2  0
 13 14  1  0
 14 15  1  0
 15 16  1  0
 16 17  2  0
 17 18  1  0
  9  4  1  0
 18 10  1  0
 18 14  2  0
M  END
>  <activity_comment>  (32) 
active

>  <activity_id>  (32) 
9515309

>  <activity_properties>  (32) 
[]

>  <assay_chembl_id>  (32) 
CHEMBL1964111

>  <assay_description>  (32) 
PUBCHEM_BIOASSAY: Navigating the Kinome. (Class of assay: other) Panel member name: CAMK2A

>  <assay_type>  (32) 
F

>  <bao_endpoint>  (32) 
BAO_0000192

>  <bao_format>  (32) 
BAO_0000019

>  <bao_label>  (32) 
assay format

>  <canonical_smiles>  (32) 
CC(=O)c1ccccc1c2ncnc3[nH]ccc23

>  <data_validity_comment>  (32) 
nan

>  <data_validity_description>  (32) 
nan

>  <document_chembl_id>  (32) 
CHEMBL1201862

>  <document_journal>  (32) 
nan

>  <document_year>  (32) 
nan

>  <ligand_efficiency>  (32) 
nan

>  <molecule_pref_name>  (32) 
nan

>  <parent_molecule_chembl_id>  (32) 
CHEMBL1977931

>  <pchembl_value>  (32) 
4.1

>  <potential_duplicate>  (32) 
False

>  <qudt_units>  (32) 
http://www.openphacts.org/units/Nanomolar

>  <record_id>  (32) 
1585156

>  <relation>  (32) 
=

>  <src_id>  (32) 
7

>  <standard_flag>  (32) 
True

>  <standard_relation>  (32) 
=

>  <standard_text_value>  (32) 
nan

>  <standard_type>  (32) 
Ki

>  <standard_units>  (32) 
nM

>  <standard_upper_value>  (32) 
nan

>  <standard_value>  (32) 
79432.82

>  <target_chembl_id>  (32) 
CHEMBL4147

>  <target_organism>  (32) 
Homo sapiens

>  <target_pref_name>  (32) 
CaM kinase II alpha

>  <target_tax_id>  (32) 
9606

>  <text_value>  (32) 
nan

>  <toid>  (32) 
nan

>  <type>  (32) 
pKi

>  <units>  (32) 
nan

>  <uo_units>  (32) 
UO_0000065

>  <upper_value>  (32) 
nan

>  <value>  (32) 
4.1

>  <SMILES>  (32) 
CC(=O)c1ccccc1c2ncnc3[nH]ccc23

>  <NAME>  (32) 
CHEMBL1977931

>  <FILTER>  (32) 
OK

>  <MW>  (32) 
237.262

>  <LogP>  (32) 
2.8275

>  <HBD>  (32) 
1

>  <HBA>  (32) 
3

>  <TPSA>  (32) 
58.64

>  <Label>  (32) 
CAMK2A

$$$$
CHEMBL1998953
     RDKit          2D

 21 24  0  0  0  0  0  0  0  0999 V2000
    3.0000   -5.1962    0.0000 C   0  0  0  0  0  0  0  0  0  0  0  0
    1.5000   -5.1962    0.0000 C   0  0  0  0  0  0  0  0  0  0  0  0
    0.7500   -3.8971    0.0000 C   0  0  0  0  0  0  0  0  0  0  0  0
    1.5000   -2.5981    0.0000 N   0  0  0  0  0  0  0  0  0  0  0  0
    3.0000   -2.5981    0.0000 C   0  0  0  0  0  0  0  0  0  0  0  0
    3.7500   -3.8971    0.0000 C   0  0  0  0  0  0  0  0  0  0  0  0
    0.7500   -1.2990    0.0000 C   0  0  0  0  0  0  0  0  0  0  0  0
    1.5000    0.0000    0.0000 N   0  0  0  0  0  0  0  0  0  0  0  0
    0.7500    1.2990    0.0000 C   0  0  0  0  0  0  0  0  0  0  0  0
   -0.7500    1.2990    0.0000 N   0  0  0  0  0  0  0  0  0  0  0  0
   -1.5000    0.0000    0.0000 C   0  0  0  0  0  0  0  0  0  0  0  0
   -2.9672   -0.3119    0.0000 N   0  0  0  0  0  0  0  0  0  0  0  0
   -3.1240   -1.8037    0.0000 C   0  0  0  0  0  0  0  0  0  0  0  0
   -1.7537   -2.4138    0.0000 C   0  0  0  0  0  0  0  0  0  0  0  0
   -1.4418   -3.8810    0.0000 C   0  0  0  0  0  0  0  0  0  0  0  0
   -2.5565   -4.8847    0.0000 C   0  0  0  0  0  0  0  0  0  0  0  0
   -2.2447   -6.3519    0.0000 C   0  0  0  0  0  0  0  0  0  0  0  0
   -0.8181   -6.8154    0.0000 C   0  0  0  0  0  0  0  0  0  0  0  0
    0.2966   -5.8117    0.0000 C   0  0  0  0  0  0  0  0  0  0  0  0
   -0.0152   -4.3445    0.0000 C   0  0  0  0  0  0  0  0  0  0  0  0
   -0.7500   -1.2990    0.0000 C   0  0  0  0  0  0  0  0  0  0  0  0
  1  2  1  0
  2  3  1  0
  3  4  1  0
  4  5  1  0
  5  6  1  0
  4  7  1  0
  7  8  2  0
  8  9  1  0
  9 10  2  0
 10 11  1  0
 11 12  1  0
 12 13  1  0
 13 14  2  0
 14 15  1  0
 15 16  2  0
 16 17  1  0
 17 18  2  0
 18 19  1  0
 19 20  2  0
 14 21  1  0
  6  1  1  0
 21  7  1  0
 21 11  2  0
 20 15  1  0
M  END
>  <activity_comment>  (33) 
active

>  <activity_id>  (33) 
9515312

>  <activity_properties>  (33) 
[]

>  <assay_chembl_id>  (33) 
CHEMBL1964111

>  <assay_description>  (33) 
PUBCHEM_BIOASSAY: Navigating the Kinome. (Class of assay: other) Panel member name: CAMK2A

>  <assay_type>  (33) 
F

>  <bao_endpoint>  (33) 
BAO_0000192

>  <bao_format>  (33) 
BAO_0000019

>  <bao_label>  (33) 
assay format

>  <canonical_smiles>  (33) 
C1CCN(CC1)c2ncnc3[nH]cc(c4ccccc4)c23

>  <data_validity_comment>  (33) 
nan

>  <data_validity_description>  (33) 
nan

>  <document_chembl_id>  (33) 
CHEMBL1201862

>  <document_journal>  (33) 
nan

>  <document_year>  (33) 
nan

>  <ligand_efficiency>  (33) 
nan

>  <molecule_pref_name>  (33) 
nan

>  <parent_molecule_chembl_id>  (33) 
CHEMBL1998953

>  <pchembl_value>  (33) 
5.7

>  <potential_duplicate>  (33) 
False

>  <qudt_units>  (33) 
http://www.openphacts.org/units/Nanomolar

>  <record_id>  (33) 
1584385

>  <relation>  (33) 
=

>  <src_id>  (33) 
7

>  <standard_flag>  (33) 
True

>  <standard_relation>  (33) 
=

>  <standard_text_value>  (33) 
nan

>  <standard_type>  (33) 
Ki

>  <standard_units>  (33) 
nM

>  <standard_upper_value>  (33) 
nan

>  <standard_value>  (33) 
1995.26

>  <target_chembl_id>  (33) 
CHEMBL4147

>  <target_organism>  (33) 
Homo sapiens

>  <target_pref_name>  (33) 
CaM kinase II alpha

>  <target_tax_id>  (33) 
9606

>  <text_value>  (33) 
nan

>  <toid>  (33) 
nan

>  <type>  (33) 
pKi

>  <units>  (33) 
nan

>  <uo_units>  (33) 
UO_0000065

>  <upper_value>  (33) 
nan

>  <value>  (33) 
5.7

>  <SMILES>  (33) 
C1CCN(CC1)c2ncnc3[nH]cc(c4ccccc4)c23

>  <NAME>  (33) 
CHEMBL1998953

>  <FILTER>  (33) 
OK

>  <MW>  (33) 
278.359

>  <LogP>  (33) 
3.6152

>  <HBD>  (33) 
1

>  <HBA>  (33) 
3

>  <TPSA>  (33) 
44.81

>  <Label>  (33) 
CAMK2A

$$$$
CHEMBL1999120
     RDKit          2D

 14 15  0  0  0  0  0  0  0  0999 V2000
    2.4446    4.6115    0.0000 C   0  0  0  0  0  0  0  0  0  0  0  0
    2.1328    3.1443    0.0000 C   0  0  0  0  0  0  0  0  0  0  0  0
    3.2475    2.1406    0.0000 C   0  0  0  0  0  0  0  0  0  0  0  0
    0.7062    2.6807    0.0000 C   0  0  0  0  0  0  0  0  0  0  0  0
   -0.4086    3.6844    0.0000 C   0  0  0  0  0  0  0  0  0  0  0  0
   -1.8351    3.2209    0.0000 C   0  0  0  0  0  0  0  0  0  0  0  0
   -2.9499    4.2246    0.0000 O   0  0  0  0  0  0  0  0  0  0  0  0
   -2.1470    1.7537    0.0000 N   0  0  0  0  0  0  0  0  0  0  0  0
   -1.0323    0.7500    0.0000 C   0  0  0  0  0  0  0  0  0  0  0  0
    0.3943    1.2135    0.0000 C   0  0  0  0  0  0  0  0  0  0  0  0
    1.2760    0.0000    0.0000 C   0  0  0  0  0  0  0  0  0  0  0  0
    2.7760    0.0000    0.0000 O   0  0  0  0  0  0  0  0  0  0  0  0
    0.3943   -1.2135    0.0000 N   0  0  0  0  0  0  0  0  0  0  0  0
   -1.0323   -0.7500    0.0000 N   0  0  0  0  0  0  0  0  0  0  0  0
  1  2  1  0
  2  3  1  0
  2  4  1  0
  4  5  2  0
  5  6  1  0
  6  7  2  0
  6  8  1  0
  8  9  1  0
  9 10  2  0
 10 11  1  0
 11 12  2  0
 11 13  1  0
 13 14  1  0
 10  4  1  0
 14  9  1  0
M  END
>  <activity_comment>  (34) 
active

>  <activity_id>  (34) 
9515316

>  <activity_properties>  (34) 
[]

>  <assay_chembl_id>  (34) 
CHEMBL1964111

>  <assay_description>  (34) 
PUBCHEM_BIOASSAY: Navigating the Kinome. (Class of assay: other) Panel member name: CAMK2A

>  <assay_type>  (34) 
F

>  <bao_endpoint>  (34) 
BAO_0000192

>  <bao_format>  (34) 
BAO_0000019

>  <bao_label>  (34) 
assay format

>  <canonical_smiles>  (34) 
CC(C)C1=CC(=O)NC2=C1C(=O)NN2

>  <data_validity_comment>  (34) 
nan

>  <data_validity_description>  (34) 
nan

>  <document_chembl_id>  (34) 
CHEMBL1201862

>  <document_journal>  (34) 
nan

>  <document_year>  (34) 
nan

>  <ligand_efficiency>  (34) 
nan

>  <molecule_pref_name>  (34) 
nan

>  <parent_molecule_chembl_id>  (34) 
CHEMBL1999120

>  <pchembl_value>  (34) 
4.2

>  <potential_duplicate>  (34) 
False

>  <qudt_units>  (34) 
http://www.openphacts.org/units/Nanomolar

>  <record_id>  (34) 
1585344

>  <relation>  (34) 
=

>  <src_id>  (34) 
7

>  <standard_flag>  (34) 
True

>  <standard_relation>  (34) 
=

>  <standard_text_value>  (34) 
nan

>  <standard_type>  (34) 
Ki

>  <standard_units>  (34) 
nM

>  <standard_upper_value>  (34) 
nan

>  <standard_value>  (34) 
63095.73

>  <target_chembl_id>  (34) 
CHEMBL4147

>  <target_organism>  (34) 
Homo sapiens

>  <target_pref_name>  (34) 
CaM kinase II alpha

>  <target_tax_id>  (34) 
9606

>  <text_value>  (34) 
nan

>  <toid>  (34) 
nan

>  <type>  (34) 
pKi

>  <units>  (34) 
nan

>  <uo_units>  (34) 
UO_0000065

>  <upper_value>  (34) 
nan

>  <value>  (34) 
4.2

>  <SMILES>  (34) 
CC(C)C1=CC(=O)NC2=C1C(=O)NN2

>  <NAME>  (34) 
CHEMBL1999120

>  <FILTER>  (34) 
OK

>  <MW>  (34) 
193.206

>  <LogP>  (34) 
0.6679

>  <HBD>  (34) 
3

>  <HBA>  (34) 
2

>  <TPSA>  (34) 
81.51

>  <Label>  (34) 
CAMK2A

$$$$
CHEMBL1973720
     RDKit          2D

 24 27  0  0  0  0  0  0  0  0999 V2000
   -5.0487    4.2236    0.0000 N   0  0  0  0  0  0  0  0  0  0  0  0
   -5.3605    2.7564    0.0000 C   0  0  0  0  0  0  0  0  0  0  0  0
   -4.2458    1.7527    0.0000 C   0  0  0  0  0  0  0  0  0  0  0  0
   -4.5577    0.2855    0.0000 C   0  0  0  0  0  0  0  0  0  0  0  0
   -5.9843   -0.1781    0.0000 C   0  0  0  0  0  0  0  0  0  0  0  0
   -7.0990    0.8256    0.0000 C   0  0  0  0  0  0  0  0  0  0  0  0
   -6.7871    2.2929    0.0000 C   0  0  0  0  0  0  0  0  0  0  0  0
   -6.2961   -1.6453    0.0000 N   0  0  0  0  0  0  0  0  0  0  0  0
   -5.1814   -2.6490    0.0000 C   0  0  0  0  0  0  0  0  0  0  0  0
   -5.4933   -4.1162    0.0000 N   0  0  0  0  0  0  0  0  0  0  0  0
   -4.3786   -5.1199    0.0000 C   0  0  0  0  0  0  0  0  0  0  0  0
   -4.6904   -6.5871    0.0000 Cl  0  0  0  0  0  0  0  0  0  0  0  0
   -2.9520   -4.6564    0.0000 C   0  0  0  0  0  0  0  0  0  0  0  0
   -2.6401   -3.1891    0.0000 C   0  0  0  0  0  0  0  0  0  0  0  0
   -3.7548   -2.1855    0.0000 N   0  0  0  0  0  0  0  0  0  0  0  0
   -1.2135   -2.7256    0.0000 C   0  0  0  0  0  0  0  0  0  0  0  0
    0.0000   -3.6073    0.0000 C   0  0  0  0  0  0  0  0  0  0  0  0
    1.2135   -2.7256    0.0000 N   0  0  0  0  0  0  0  0  0  0  0  0
    0.7500   -1.2990    0.0000 C   0  0  0  0  0  0  0  0  0  0  0  0
    1.5000    0.0000    0.0000 N   0  0  0  0  0  0  0  0  0  0  0  0
    0.7500    1.2990    0.0000 C   0  0  0  0  0  0  0  0  0  0  0  0
   -0.7500    1.2990    0.0000 C   0  0  0  0  0  0  0  0  0  0  0  0
   -1.5000    0.0000    0.0000 C   0  0  0  0  0  0  0  0  0  0  0  0
   -0.7500   -1.2990    0.0000 C   0  0  0  0  0  0  0  0  0  0  0  0
  1  2  1  0
  2  3  1  0
  3  4  1  0
  4  5  1  0
  5  6  1  0
  6  7  1  0
  5  8  1  0
  8  9  1  0
  9 10  2  0
 10 11  1  0
 11 12  1  0
 11 13  2  0
 13 14  1  0
 14 15  2  0
 14 16  1  0
 16 17  2  0
 17 18  1  0
 18 19  1  0
 19 20  2  0
 20 21  1  0
 21 22  2  0
 22 23  1  0
 23 24  2  0
  7  2  1  0
 15  9  1  0
 24 16  1  0
 24 19  1  0
M  END
>  <activity_comment>  (35) 
active

>  <activity_id>  (35) 
9515319

>  <activity_properties>  (35) 
[]

>  <assay_chembl_id>  (35) 
CHEMBL1964111

>  <assay_description>  (35) 
PUBCHEM_BIOASSAY: Navigating the Kinome. (Class of assay: other) Panel member name: CAMK2A

>  <assay_type>  (35) 
F

>  <bao_endpoint>  (35) 
BAO_0000192

>  <bao_format>  (35) 
BAO_0000019

>  <bao_label>  (35) 
assay format

>  <canonical_smiles>  (35) 
NC1CCC(CC1)Nc2nc(Cl)cc(n2)c3c[nH]c4ncccc34

>  <data_validity_comment>  (35) 
nan

>  <data_validity_description>  (35) 
nan

>  <document_chembl_id>  (35) 
CHEMBL1201862

>  <document_journal>  (35) 
nan

>  <document_year>  (35) 
nan

>  <ligand_efficiency>  (35) 
nan

>  <molecule_pref_name>  (35) 
nan

>  <parent_molecule_chembl_id>  (35) 
CHEMBL1973720

>  <pchembl_value>  (35) 
6.7

>  <potential_duplicate>  (35) 
False

>  <qudt_units>  (35) 
http://www.openphacts.org/units/Nanomolar

>  <record_id>  (35) 
1584072

>  <relation>  (35) 
=

>  <src_id>  (35) 
7

>  <standard_flag>  (35) 
True

>  <standard_relation>  (35) 
=

>  <standard_text_value>  (35) 
nan

>  <standard_type>  (35) 
Ki

>  <standard_units>  (35) 
nM

>  <standard_upper_value>  (35) 
nan

>  <standard_value>  (35) 
199.53

>  <target_chembl_id>  (35) 
CHEMBL4147

>  <target_organism>  (35) 
Homo sapiens

>  <target_pref_name>  (35) 
CaM kinase II alpha

>  <target_tax_id>  (35) 
9606

>  <text_value>  (35) 
nan

>  <toid>  (35) 
nan

>  <type>  (35) 
pKi

>  <units>  (35) 
nan

>  <uo_units>  (35) 
UO_0000065

>  <upper_value>  (35) 
nan

>  <value>  (35) 
6.7

>  <SMILES>  (35) 
NC1CCC(CC1)Nc2nc(Cl)cc(n2)c3c[nH]c4ncccc34

>  <NAME>  (35) 
CHEMBL1973720

>  <FILTER>  (35) 
OK

>  <MW>  (35) 
342.834

>  <LogP>  (35) 
3.3551

>  <HBD>  (35) 
3

>  <HBA>  (35) 
5

>  <TPSA>  (35) 
92.51

>  <Label>  (35) 
CAMK2A

$$$$
CHEMBL1970340
     RDKit          2D

 17 19  0  0  0  0  0  0  0  0999 V2000
   -2.6401   -3.1891    0.0000 N   0  0  0  0  0  0  0  0  0  0  0  0
   -1.2135   -2.7256    0.0000 C   0  0  0  0  0  0  0  0  0  0  0  0
   -0.0000   -3.6073    0.0000 N   0  0  0  0  0  0  0  0  0  0  0  0
    1.2135   -2.7256    0.0000 O   0  0  0  0  0  0  0  0  0  0  0  0
    0.7500   -1.2990    0.0000 C   0  0  0  0  0  0  0  0  0  0  0  0
    1.5000    0.0000    0.0000 C   0  0  0  0  0  0  0  0  0  0  0  0
    0.7500    1.2990    0.0000 C   0  0  0  0  0  0  0  0  0  0  0  0
   -0.7500    1.2990    0.0000 C   0  0  0  0  0  0  0  0  0  0  0  0
   -1.5000    0.0000    0.0000 C   0  0  0  0  0  0  0  0  0  0  0  0
   -3.0000    0.0000    0.0000 C   0  0  0  0  0  0  0  0  0  0  0  0
   -3.7500    1.2990    0.0000 C   0  0  0  0  0  0  0  0  0  0  0  0
   -5.2500    1.2990    0.0000 C   0  0  0  0  0  0  0  0  0  0  0  0
   -6.0000    0.0000    0.0000 C   0  0  0  0  0  0  0  0  0  0  0  0
   -5.2500   -1.2990    0.0000 C   0  0  0  0  0  0  0  0  0  0  0  0
   -6.0000   -2.5981    0.0000 O   0  0  0  0  0  0  0  0  0  0  0  0
   -3.7500   -1.2990    0.0000 C   0  0  0  0  0  0  0  0  0  0  0  0
   -0.7500   -1.2990    0.0000 C   0  0  0  0  0  0  0  0  0  0  0  0
  1  2  1  0
  2  3  2  0
  3  4  1  0
  4  5  1  0
  5  6  2  0
  6  7  1  0
  7  8  2  0
  8  9  1  0
  9 10  1  0
 10 11  2  0
 11 12  1  0
 12 13  2  0
 13 14  1  0
 14 15  1  0
 14 16  2  0
  9 17  2  0
 17  2  1  0
 17  5  1  0
 16 10  1  0
M  END
>  <activity_comment>  (36) 
active

>  <activity_id>  (36) 
9515327

>  <activity_properties>  (36) 
[]

>  <assay_chembl_id>  (36) 
CHEMBL1964111

>  <assay_description>  (36) 
PUBCHEM_BIOASSAY: Navigating the Kinome. (Class of assay: other) Panel member name: CAMK2A

>  <assay_type>  (36) 
F

>  <bao_endpoint>  (36) 
BAO_0000192

>  <bao_format>  (36) 
BAO_0000019

>  <bao_label>  (36) 
assay format

>  <canonical_smiles>  (36) 
Nc1noc2cccc(c3cccc(O)c3)c12

>  <data_validity_comment>  (36) 
nan

>  <data_validity_description>  (36) 
nan

>  <document_chembl_id>  (36) 
CHEMBL1201862

>  <document_journal>  (36) 
nan

>  <document_year>  (36) 
nan

>  <ligand_efficiency>  (36) 
nan

>  <molecule_pref_name>  (36) 
nan

>  <parent_molecule_chembl_id>  (36) 
CHEMBL1970340

>  <pchembl_value>  (36) 
4.3

>  <potential_duplicate>  (36) 
False

>  <qudt_units>  (36) 
http://www.openphacts.org/units/Nanomolar

>  <record_id>  (36) 
1585461

>  <relation>  (36) 
=

>  <src_id>  (36) 
7

>  <standard_flag>  (36) 
True

>  <standard_relation>  (36) 
=

>  <standard_text_value>  (36) 
nan

>  <standard_type>  (36) 
Ki

>  <standard_units>  (36) 
nM

>  <standard_upper_value>  (36) 
nan

>  <standard_value>  (36) 
50118.72

>  <target_chembl_id>  (36) 
CHEMBL4147

>  <target_organism>  (36) 
Homo sapiens

>  <target_pref_name>  (36) 
CaM kinase II alpha

>  <target_tax_id>  (36) 
9606

>  <text_value>  (36) 
nan

>  <toid>  (36) 
nan

>  <type>  (36) 
pKi

>  <units>  (36) 
nan

>  <uo_units>  (36) 
UO_0000065

>  <upper_value>  (36) 
nan

>  <value>  (36) 
4.3

>  <SMILES>  (36) 
Nc1noc2cccc(c3cccc(O)c3)c12

>  <NAME>  (36) 
CHEMBL1970340

>  <FILTER>  (36) 
OK

>  <MW>  (36) 
226.235

>  <LogP>  (36) 
2.7826

>  <HBD>  (36) 
2

>  <HBA>  (36) 
4

>  <TPSA>  (36) 
72.28

>  <Label>  (36) 
CAMK2A

$$$$
CHEMBL1997611
     RDKit          2D

 27 29  0  0  0  0  0  0  0  0999 V2000
   -8.3202   -4.4017    0.0000 C   0  0  0  0  0  0  0  0  0  0  0  0
   -7.0211   -5.1517    0.0000 C   0  0  0  0  0  0  0  0  0  0  0  0
   -5.7221   -4.4017    0.0000 O   0  0  0  0  0  0  0  0  0  0  0  0
   -4.4231   -5.1517    0.0000 C   0  0  0  0  0  0  0  0  0  0  0  0
   -4.4231   -6.6517    0.0000 O   0  0  0  0  0  0  0  0  0  0  0  0
   -3.1240   -4.4017    0.0000 C   0  0  0  0  0  0  0  0  0  0  0  0
   -1.7537   -5.0118    0.0000 N   0  0  0  0  0  0  0  0  0  0  0  0
   -0.7500   -3.8971    0.0000 C   0  0  0  0  0  0  0  0  0  0  0  0
    0.7500   -3.8971    0.0000 C   0  0  0  0  0  0  0  0  0  0  0  0
    1.5000   -5.1962    0.0000 O   0  0  0  0  0  0  0  0  0  0  0  0
    1.5000   -2.5981    0.0000 N   0  0  0  0  0  0  0  0  0  0  0  0
    0.7500   -1.2990    0.0000 C   0  0  0  0  0  0  0  0  0  0  0  0
    1.5000    0.0000    0.0000 C   0  0  0  0  0  0  0  0  0  0  0  0
    0.7500    1.2990    0.0000 C   0  0  0  0  0  0  0  0  0  0  0  0
   -0.7500    1.2990    0.0000 C   0  0  0  0  0  0  0  0  0  0  0  0
   -1.5000    2.5981    0.0000 N   0  0  0  0  0  0  0  0  0  0  0  0
   -3.0000    2.5981    0.0000 C   0  0  0  0  0  0  0  0  0  0  0  0
   -3.7500    1.2990    0.0000 O   0  0  0  0  0  0  0  0  0  0  0  0
   -3.7500    3.8971    0.0000 C   0  0  0  0  0  0  0  0  0  0  0  0
   -1.5000    0.0000    0.0000 C   0  0  0  0  0  0  0  0  0  0  0  0
   -0.7500   -1.2990    0.0000 C   0  0  0  0  0  0  0  0  0  0  0  0
   -1.5000   -2.5981    0.0000 N   0  0  0  0  0  0  0  0  0  0  0  0
   -2.9672   -2.9099    0.0000 C   0  0  0  0  0  0  0  0  0  0  0  0
   -4.0819   -1.9062    0.0000 C   0  0  0  0  0  0  0  0  0  0  0  0
    1.5000    2.5981    0.0000 N   0  0  0  0  0  0  0  0  0  0  0  0
    0.7500    3.8971    0.0000 O   0  0  0  0  0  0  0  0  0  0  0  0
    3.0000    2.5981    0.0000 O   0  0  0  0  0  0  0  0  0  0  0  0
  1  2  1  0
  2  3  1  0
  3  4  1  0
  4  5  2  0
  4  6  1  0
  6  7  1  0
  7  8  2  0
  8  9  1  0
  9 10  2  0
  9 11  1  0
 11 12  1  0
 12 13  2  0
 13 14  1  0
 14 15  2  0
 15 16  1  0
 16 17  1  0
 17 18  2  0
 17 19  1  0
 15 20  1  0
 20 21  2  0
 21 22  1  0
 22 23  1  0
 23 24  1  0
 14 25  1  0
 25 26  2  0
 25 27  1  0
 23  6  2  0
 22  8  1  0
 21 12  1  0
M  CHG  2  25   1  27  -1
M  END
>  <activity_comment>  (37) 
active

>  <activity_id>  (37) 
9515340

>  <activity_properties>  (37) 
[]

>  <assay_chembl_id>  (37) 
CHEMBL1964111

>  <assay_description>  (37) 
PUBCHEM_BIOASSAY: Navigating the Kinome. (Class of assay: other) Panel member name: CAMK2A

>  <assay_type>  (37) 
F

>  <bao_endpoint>  (37) 
BAO_0000192

>  <bao_format>  (37) 
BAO_0000019

>  <bao_label>  (37) 
assay format

>  <canonical_smiles>  (37) 
CCOC(=O)c1nc2C(=O)Nc3cc(c(NC(=O)C)cc3n2c1C)[N+](=O)[O-]

>  <data_validity_comment>  (37) 
nan

>  <data_validity_description>  (37) 
nan

>  <document_chembl_id>  (37) 
CHEMBL1201862

>  <document_journal>  (37) 
nan

>  <document_year>  (37) 
nan

>  <ligand_efficiency>  (37) 
nan

>  <molecule_pref_name>  (37) 
nan

>  <parent_molecule_chembl_id>  (37) 
CHEMBL1997611

>  <pchembl_value>  (37) 
5.4

>  <potential_duplicate>  (37) 
False

>  <qudt_units>  (37) 
http://www.openphacts.org/units/Nanomolar

>  <record_id>  (37) 
1585546

>  <relation>  (37) 
=

>  <src_id>  (37) 
7

>  <standard_flag>  (37) 
True

>  <standard_relation>  (37) 
=

>  <standard_text_value>  (37) 
nan

>  <standard_type>  (37) 
Ki

>  <standard_units>  (37) 
nM

>  <standard_upper_value>  (37) 
nan

>  <standard_value>  (37) 
3981.07

>  <target_chembl_id>  (37) 
CHEMBL4147

>  <target_organism>  (37) 
Homo sapiens

>  <target_pref_name>  (37) 
CaM kinase II alpha

>  <target_tax_id>  (37) 
9606

>  <text_value>  (37) 
nan

>  <toid>  (37) 
nan

>  <type>  (37) 
pKi

>  <units>  (37) 
nan

>  <uo_units>  (37) 
UO_0000065

>  <upper_value>  (37) 
nan

>  <value>  (37) 
5.4

>  <SMILES>  (37) 
CCOC(=O)c1nc2C(=O)Nc3cc(c(NC(=O)C)cc3n2c1C)[N+](=O)[O-]

>  <NAME>  (37) 
CHEMBL1997611

>  <FILTER>  (37) 
OK

>  <MW>  (37) 
373.325

>  <LogP>  (37) 
1.52752

>  <HBD>  (37) 
2

>  <HBA>  (37) 
8

>  <TPSA>  (37) 
148.7

>  <Label>  (37) 
CAMK2A

$$$$
CHEMBL2002723
     RDKit          2D

 20 22  0  0  0  0  0  0  0  0999 V2000
   -1.2990  -11.8573    0.0000 C   0  0  0  0  0  0  0  0  0  0  0  0
   -1.2990  -10.3573    0.0000 C   0  0  0  0  0  0  0  0  0  0  0  0
   -2.5981   -9.6073    0.0000 O   0  0  0  0  0  0  0  0  0  0  0  0
    0.0000   -9.6073    0.0000 N   0  0  0  0  0  0  0  0  0  0  0  0
    0.0000   -8.1073    0.0000 C   0  0  0  0  0  0  0  0  0  0  0  0
   -1.2990   -7.3573    0.0000 C   0  0  0  0  0  0  0  0  0  0  0  0
   -1.2990   -5.8573    0.0000 C   0  0  0  0  0  0  0  0  0  0  0  0
   -0.0000   -5.1073    0.0000 C   0  0  0  0  0  0  0  0  0  0  0  0
    1.2990   -5.8573    0.0000 C   0  0  0  0  0  0  0  0  0  0  0  0
    1.2990   -7.3573    0.0000 C   0  0  0  0  0  0  0  0  0  0  0  0
   -0.0000   -3.6073    0.0000 N   0  0  0  0  0  0  0  0  0  0  0  0
    1.2135   -2.7256    0.0000 N   0  0  0  0  0  0  0  0  0  0  0  0
    0.7500   -1.2990    0.0000 C   0  0  0  0  0  0  0  0  0  0  0  0
    1.5000    0.0000    0.0000 C   0  0  0  0  0  0  0  0  0  0  0  0
    0.7500    1.2990    0.0000 C   0  0  0  0  0  0  0  0  0  0  0  0
   -0.7500    1.2990    0.0000 C   0  0  0  0  0  0  0  0  0  0  0  0
   -1.5000    2.5981    0.0000 N   0  0  0  0  0  0  0  0  0  0  0  0
   -1.5000    0.0000    0.0000 N   0  0  0  0  0  0  0  0  0  0  0  0
   -0.7500   -1.2990    0.0000 C   0  0  0  0  0  0  0  0  0  0  0  0
   -1.2135   -2.7256    0.0000 N   0  0  0  0  0  0  0  0  0  0  0  0
  1  2  1  0
  2  3  2  0
  2  4  1  0
  4  5  1  0
  5  6  2  0
  6  7  1  0
  7  8  2  0
  8  9  1  0
  9 10  2  0
  8 11  1  0
 11 12  1  0
 12 13  2  0
 13 14  1  0
 14 15  2  0
 15 16  1  0
 16 17  1  0
 16 18  2  0
 18 19  1  0
 19 20  2  0
 10  5  1  0
 20 11  1  0
 19 13  1  0
M  END
>  <activity_comment>  (38) 
active

>  <activity_id>  (38) 
9515342

>  <activity_properties>  (38) 
[]

>  <assay_chembl_id>  (38) 
CHEMBL1964111

>  <assay_description>  (38) 
PUBCHEM_BIOASSAY: Navigating the Kinome. (Class of assay: other) Panel member name: CAMK2A

>  <assay_type>  (38) 
F

>  <bao_endpoint>  (38) 
BAO_0000192

>  <bao_format>  (38) 
BAO_0000019

>  <bao_label>  (38) 
assay format

>  <canonical_smiles>  (38) 
CC(=O)Nc1ccc(cc1)n2nc3ccc(N)nc3n2

>  <data_validity_comment>  (38) 
nan

>  <data_validity_description>  (38) 
nan

>  <document_chembl_id>  (38) 
CHEMBL1201862

>  <document_journal>  (38) 
nan

>  <document_year>  (38) 
nan

>  <ligand_efficiency>  (38) 
nan

>  <molecule_pref_name>  (38) 
nan

>  <parent_molecule_chembl_id>  (38) 
CHEMBL2002723

>  <pchembl_value>  (38) 
5.9

>  <potential_duplicate>  (38) 
False

>  <qudt_units>  (38) 
http://www.openphacts.org/units/Nanomolar

>  <record_id>  (38) 
1585502

>  <relation>  (38) 
=

>  <src_id>  (38) 
7

>  <standard_flag>  (38) 
True

>  <standard_relation>  (38) 
=

>  <standard_text_value>  (38) 
nan

>  <standard_type>  (38) 
Ki

>  <standard_units>  (38) 
nM

>  <standard_upper_value>  (38) 
nan

>  <standard_value>  (38) 
1258.93

>  <target_chembl_id>  (38) 
CHEMBL4147

>  <target_organism>  (38) 
Homo sapiens

>  <target_pref_name>  (38) 
CaM kinase II alpha

>  <target_tax_id>  (38) 
9606

>  <text_value>  (38) 
nan

>  <toid>  (38) 
nan

>  <type>  (38) 
pKi

>  <units>  (38) 
nan

>  <uo_units>  (38) 
UO_0000065

>  <upper_value>  (38) 
nan

>  <value>  (38) 
5.9

>  <SMILES>  (38) 
CC(=O)Nc1ccc(cc1)n2nc3ccc(N)nc3n2

>  <NAME>  (38) 
CHEMBL2002723

>  <FILTER>  (38) 
OK

>  <MW>  (38) 
268.28

>  <LogP>  (38) 
1.3561

>  <HBD>  (38) 
2

>  <HBA>  (38) 
6

>  <TPSA>  (38) 
98.72

>  <Label>  (38) 
CAMK2A

$$$$
CHEMBL1967878
     RDKit          2D

 33 37  0  0  0  0  0  0  0  0999 V2000
   14.7401    2.1079    0.0000 C   0  0  0  0  0  0  0  0  0  0  0  0
   13.3698    2.7180    0.0000 N   0  0  0  0  0  0  0  0  0  0  0  0
   12.1563    1.8363    0.0000 C   0  0  0  0  0  0  0  0  0  0  0  0
   10.7859    2.4464    0.0000 C   0  0  0  0  0  0  0  0  0  0  0  0
   10.6291    3.9382    0.0000 N   0  0  0  0  0  0  0  0  0  0  0  0
   11.8427    4.8199    0.0000 C   0  0  0  0  0  0  0  0  0  0  0  0
   13.2130    4.2098    0.0000 C   0  0  0  0  0  0  0  0  0  0  0  0
    9.2588    4.5483    0.0000 C   0  0  0  0  0  0  0  0  0  0  0  0
    9.1020    6.0401    0.0000 C   0  0  0  0  0  0  0  0  0  0  0  0
    7.7317    6.6502    0.0000 C   0  0  0  0  0  0  0  0  0  0  0  0
    6.5182    5.7685    0.0000 C   0  0  0  0  0  0  0  0  0  0  0  0
    5.1479    6.3786    0.0000 N   0  0  0  0  0  0  0  0  0  0  0  0
    3.9343    5.4969    0.0000 C   0  0  0  0  0  0  0  0  0  0  0  0
    2.5640    6.1070    0.0000 N   0  0  0  0  0  0  0  0  0  0  0  0
    1.3505    5.2253    0.0000 C   0  0  0  0  0  0  0  0  0  0  0  0
    1.5073    3.7336    0.0000 C   0  0  0  0  0  0  0  0  0  0  0  0
    0.2938    2.8519    0.0000 F   0  0  0  0  0  0  0  0  0  0  0  0
    2.8776    3.1235    0.0000 C   0  0  0  0  0  0  0  0  0  0  0  0
    3.0344    1.6317    0.0000 N   0  0  0  0  0  0  0  0  0  0  0  0
    1.8209    0.7500    0.0000 C   0  0  0  0  0  0  0  0  0  0  0  0
    0.3943    1.2135    0.0000 C   0  0  0  0  0  0  0  0  0  0  0  0
    1.2760    0.0000    0.0000 C   0  0  0  0  0  0  0  0  0  0  0  0
    0.3943   -1.2135    0.0000 C   0  0  0  0  0  0  0  0  0  0  0  0
   -1.0323   -0.7500    0.0000 C   0  0  0  0  0  0  0  0  0  0  0  0
   -1.0323    0.7500    0.0000 C   0  0  0  0  0  0  0  0  0  0  0  0
    1.8209   -0.7500    0.0000 C   0  0  0  0  0  0  0  0  0  0  0  0
    3.0344   -1.6317    0.0000 C   0  0  0  0  0  0  0  0  0  0  0  0
    4.4047   -1.0216    0.0000 O   0  0  0  0  0  0  0  0  0  0  0  0
    2.8776   -3.1235    0.0000 N   0  0  0  0  0  0  0  0  0  0  0  0
    4.0911    4.0051    0.0000 N   0  0  0  0  0  0  0  0  0  0  0  0
    6.6750    4.2767    0.0000 C   0  0  0  0  0  0  0  0  0  0  0  0
    8.0453    3.6666    0.0000 C   0  0  0  0  0  0  0  0  0  0  0  0
    8.2021    2.1748    0.0000 C   0  0  0  0  0  0  0  0  0  0  0  0
  1  2  1  0
  2  3  1  0
  3  4  1  0
  4  5  1  0
  5  6  1  0
  6  7  1  0
  5  8  1  0
  8  9  2  0
  9 10  1  0
 10 11  2  0
 11 12  1  0
 12 13  1  0
 13 14  2  0
 14 15  1  0
 15 16  2  0
 16 17  1  0
 16 18  1  0
 18 19  1  0
 19 20  1  0
 20 21  1  0
 21 22  1  0
 22 23  1  0
 23 24  1  0
 24 25  2  0
 23 26  1  0
 26 27  1  0
 27 28  2  0
 27 29  1  0
 18 30  2  0
 11 31  1  0
 31 32  2  0
 32 33  1  0
  7  2  1  0
 32  8  1  0
 30 13  1  0
 26 20  1  0
 25 21  1  0
M  END
>  <activity_comment>  (39) 
active

>  <activity_id>  (39) 
9515347

>  <activity_properties>  (39) 
[]

>  <assay_chembl_id>  (39) 
CHEMBL1964111

>  <assay_description>  (39) 
PUBCHEM_BIOASSAY: Navigating the Kinome. (Class of assay: other) Panel member name: CAMK2A

>  <assay_type>  (39) 
F

>  <bao_endpoint>  (39) 
BAO_0000192

>  <bao_format>  (39) 
BAO_0000019

>  <bao_label>  (39) 
assay format

>  <canonical_smiles>  (39) 
CN1CCN(CC1)c2ccc(Nc3ncc(F)c(NC4C5CC(C=C5)C4C(=O)N)n3)cc2C

>  <data_validity_comment>  (39) 
nan

>  <data_validity_description>  (39) 
nan

>  <document_chembl_id>  (39) 
CHEMBL1201862

>  <document_journal>  (39) 
nan

>  <document_year>  (39) 
nan

>  <ligand_efficiency>  (39) 
nan

>  <molecule_pref_name>  (39) 
CENISERTIB

>  <parent_molecule_chembl_id>  (39) 
CHEMBL1967878

>  <pchembl_value>  (39) 
5.7

>  <potential_duplicate>  (39) 
False

>  <qudt_units>  (39) 
http://www.openphacts.org/units/Nanomolar

>  <record_id>  (39) 
1584284

>  <relation>  (39) 
=

>  <src_id>  (39) 
7

>  <standard_flag>  (39) 
True

>  <standard_relation>  (39) 
=

>  <standard_text_value>  (39) 
nan

>  <standard_type>  (39) 
Ki

>  <standard_units>  (39) 
nM

>  <standard_upper_value>  (39) 
nan

>  <standard_value>  (39) 
1995.26

>  <target_chembl_id>  (39) 
CHEMBL4147

>  <target_organism>  (39) 
Homo sapiens

>  <target_pref_name>  (39) 
CaM kinase II alpha

>  <target_tax_id>  (39) 
9606

>  <text_value>  (39) 
nan

>  <toid>  (39) 
nan

>  <type>  (39) 
pKi

>  <units>  (39) 
nan

>  <uo_units>  (39) 
UO_0000065

>  <upper_value>  (39) 
nan

>  <value>  (39) 
5.7

>  <SMILES>  (39) 
CN1CCN(CC1)c2ccc(Nc3ncc(F)c(NC4C5CC(C=C5)C4C(=O)N)n3)cc2C

>  <NAME>  (39) 
CHEMBL1967878

>  <FILTER>  (39) 
OK

>  <MW>  (39) 
451.55

>  <LogP>  (39) 
2.50742

>  <HBD>  (39) 
3

>  <HBA>  (39) 
7

>  <TPSA>  (39) 
99.41

>  <Label>  (39) 
CAMK2A

$$$$
CHEMBL1992073
     RDKit          2D

 26 30  0  0  0  0  0  0  0  0999 V2000
   -8.3515    0.9439    0.0000 C   0  0  0  0  0  0  0  0  0  0  0  0
   -6.8843    1.2558    0.0000 C   0  0  0  0  0  0  0  0  0  0  0  0
   -5.8806    0.1411    0.0000 C   0  0  0  0  0  0  0  0  0  0  0  0
   -6.1924   -1.3261    0.0000 C   0  0  0  0  0  0  0  0  0  0  0  0
   -4.8934   -2.0761    0.0000 C   0  0  0  0  0  0  0  0  0  0  0  0
   -3.7787   -1.0725    0.0000 C   0  0  0  0  0  0  0  0  0  0  0  0
   -4.3888    0.2979    0.0000 C   0  0  0  0  0  0  0  0  0  0  0  0
   -3.6388    1.5969    0.0000 C   0  0  0  0  0  0  0  0  0  0  0  0
   -4.2489    2.9672    0.0000 N   0  0  0  0  0  0  0  0  0  0  0  0
   -3.1342    3.9709    0.0000 C   0  0  0  0  0  0  0  0  0  0  0  0
   -1.8351    3.2209    0.0000 C   0  0  0  0  0  0  0  0  0  0  0  0
   -0.4086    3.6844    0.0000 C   0  0  0  0  0  0  0  0  0  0  0  0
    0.7062    2.6807    0.0000 N   0  0  0  0  0  0  0  0  0  0  0  0
    0.3943    1.2135    0.0000 C   0  0  0  0  0  0  0  0  0  0  0  0
    1.2760    0.0000    0.0000 N   0  0  0  0  0  0  0  0  0  0  0  0
    0.3943   -1.2135    0.0000 C   0  0  0  0  0  0  0  0  0  0  0  0
   -1.0323   -0.7500    0.0000 C   0  0  0  0  0  0  0  0  0  0  0  0
   -1.0323    0.7500    0.0000 C   0  0  0  0  0  0  0  0  0  0  0  0
   -2.1470    1.7537    0.0000 N   0  0  0  0  0  0  0  0  0  0  0  0
   -4.7366   -3.5679    0.0000 N   0  0  0  0  0  0  0  0  0  0  0  0
   -5.9501   -4.4496    0.0000 S   0  0  0  0  0  0  0  0  0  0  0  0
   -6.8318   -3.2361    0.0000 O   0  0  0  0  0  0  0  0  0  0  0  0
   -5.0685   -5.6631    0.0000 O   0  0  0  0  0  0  0  0  0  0  0  0
   -7.1637   -5.3313    0.0000 C   0  0  0  0  0  0  0  0  0  0  0  0
   -7.7738   -6.7016    0.0000 C   0  0  0  0  0  0  0  0  0  0  0  0
   -8.6554   -5.4881    0.0000 C   0  0  0  0  0  0  0  0  0  0  0  0
  1  2  1  0
  2  3  1  0
  3  4  1  0
  4  5  1  0
  5  6  1  0
  6  7  1  0
  7  8  1  0
  8  9  2  0
  9 10  1  0
 10 11  2  0
 11 12  1  0
 12 13  2  0
 13 14  1  0
 14 15  1  0
 15 16  1  0
 16 17  2  0
 17 18  1  0
 18 19  1  0
  5 20  1  0
 20 21  1  0
 21 22  2  0
 21 23  2  0
 21 24  1  0
 24 25  1  0
 25 26  1  0
  7  3  1  0
 19  8  1  0
 19 11  1  0
 18 14  2  0
 26 24  1  0
M  END
>  <activity_comment>  (40) 
active

>  <activity_id>  (40) 
9515348

>  <activity_properties>  (40) 
[]

>  <assay_chembl_id>  (40) 
CHEMBL1964111

>  <assay_description>  (40) 
PUBCHEM_BIOASSAY: Navigating the Kinome. (Class of assay: other) Panel member name: CAMK2A

>  <assay_type>  (40) 
F

>  <bao_endpoint>  (40) 
BAO_0000192

>  <bao_format>  (40) 
BAO_0000019

>  <bao_label>  (40) 
assay format

>  <canonical_smiles>  (40) 
CCC1CC(CC1c2ncc3cnc4[nH]ccc4n23)NS(=O)(=O)C5CC5

>  <data_validity_comment>  (40) 
nan

>  <data_validity_description>  (40) 
nan

>  <document_chembl_id>  (40) 
CHEMBL1201862

>  <document_journal>  (40) 
nan

>  <document_year>  (40) 
nan

>  <ligand_efficiency>  (40) 
nan

>  <molecule_pref_name>  (40) 
nan

>  <parent_molecule_chembl_id>  (40) 
CHEMBL1992073

>  <pchembl_value>  (40) 
5.6

>  <potential_duplicate>  (40) 
False

>  <qudt_units>  (40) 
http://www.openphacts.org/units/Nanomolar

>  <record_id>  (40) 
1584799

>  <relation>  (40) 
=

>  <src_id>  (40) 
7

>  <standard_flag>  (40) 
True

>  <standard_relation>  (40) 
=

>  <standard_text_value>  (40) 
nan

>  <standard_type>  (40) 
Ki

>  <standard_units>  (40) 
nM

>  <standard_upper_value>  (40) 
nan

>  <standard_value>  (40) 
2511.89

>  <target_chembl_id>  (40) 
CHEMBL4147

>  <target_organism>  (40) 
Homo sapiens

>  <target_pref_name>  (40) 
CaM kinase II alpha

>  <target_tax_id>  (40) 
9606

>  <text_value>  (40) 
nan

>  <toid>  (40) 
nan

>  <type>  (40) 
pKi

>  <units>  (40) 
nan

>  <uo_units>  (40) 
UO_0000065

>  <upper_value>  (40) 
nan

>  <value>  (40) 
5.6

>  <SMILES>  (40) 
CCC1CC(CC1c2ncc3cnc4[nH]ccc4n23)NS(=O)(=O)C5CC5

>  <NAME>  (40) 
CHEMBL1992073

>  <FILTER>  (40) 
OK

>  <MW>  (40) 
373.482

>  <LogP>  (40) 
2.5646

>  <HBD>  (40) 
2

>  <HBA>  (40) 
5

>  <TPSA>  (40) 
92.15

>  <Label>  (40) 
CAMK2A

$$$$
CHEMBL1972934
     RDKit          2D

 10 11  0  0  0  0  0  0  0  0999 V2000
   -3.5736    1.2902    0.0000 N   0  0  0  0  0  0  0  0  0  0  0  0
   -2.1470    1.7537    0.0000 C   0  0  0  0  0  0  0  0  0  0  0  0
   -1.8351    3.2209    0.0000 N   0  0  0  0  0  0  0  0  0  0  0  0
   -0.4086    3.6844    0.0000 C   0  0  0  0  0  0  0  0  0  0  0  0
    0.7062    2.6807    0.0000 N   0  0  0  0  0  0  0  0  0  0  0  0
    0.3943    1.2135    0.0000 C   0  0  0  0  0  0  0  0  0  0  0  0
    1.2760    0.0000    0.0000 S   0  0  0  0  0  0  0  0  0  0  0  0
    0.3943   -1.2135    0.0000 C   0  0  0  0  0  0  0  0  0  0  0  0
   -1.0323   -0.7500    0.0000 C   0  0  0  0  0  0  0  0  0  0  0  0
   -1.0323    0.7500    0.0000 C   0  0  0  0  0  0  0  0  0  0  0  0
  1  2  1  0
  2  3  2  0
  3  4  1  0
  4  5  2  0
  5  6  1  0
  6  7  1  0
  7  8  1  0
  8  9  2  0
  9 10  1  0
 10  2  1  0
 10  6  2  0
M  END
>  <activity_comment>  (41) 
active

>  <activity_id>  (41) 
9515352

>  <activity_properties>  (41) 
[]

>  <assay_chembl_id>  (41) 
CHEMBL1964111

>  <assay_description>  (41) 
PUBCHEM_BIOASSAY: Navigating the Kinome. (Class of assay: other) Panel member name: CAMK2A

>  <assay_type>  (41) 
F

>  <bao_endpoint>  (41) 
BAO_0000192

>  <bao_format>  (41) 
BAO_0000019

>  <bao_label>  (41) 
assay format

>  <canonical_smiles>  (41) 
Nc1ncnc2sccc12

>  <data_validity_comment>  (41) 
nan

>  <data_validity_description>  (41) 
nan

>  <document_chembl_id>  (41) 
CHEMBL1201862

>  <document_journal>  (41) 
nan

>  <document_year>  (41) 
nan

>  <ligand_efficiency>  (41) 
nan

>  <molecule_pref_name>  (41) 
nan

>  <parent_molecule_chembl_id>  (41) 
CHEMBL1972934

>  <pchembl_value>  (41) 
4.2

>  <potential_duplicate>  (41) 
False

>  <qudt_units>  (41) 
http://www.openphacts.org/units/Nanomolar

>  <record_id>  (41) 
1585164

>  <relation>  (41) 
=

>  <src_id>  (41) 
7

>  <standard_flag>  (41) 
True

>  <standard_relation>  (41) 
=

>  <standard_text_value>  (41) 
nan

>  <standard_type>  (41) 
Ki

>  <standard_units>  (41) 
nM

>  <standard_upper_value>  (41) 
nan

>  <standard_value>  (41) 
63095.73

>  <target_chembl_id>  (41) 
CHEMBL4147

>  <target_organism>  (41) 
Homo sapiens

>  <target_pref_name>  (41) 
CaM kinase II alpha

>  <target_tax_id>  (41) 
9606

>  <text_value>  (41) 
nan

>  <toid>  (41) 
nan

>  <type>  (41) 
pKi

>  <units>  (41) 
nan

>  <uo_units>  (41) 
UO_0000065

>  <upper_value>  (41) 
nan

>  <value>  (41) 
4.2

>  <SMILES>  (41) 
Nc1ncnc2sccc12

>  <NAME>  (41) 
CHEMBL1972934

>  <FILTER>  (41) 
OK

>  <MW>  (41) 
151.194

>  <LogP>  (41) 
1.2735

>  <HBD>  (41) 
1

>  <HBA>  (41) 
4

>  <TPSA>  (41) 
51.8

>  <Label>  (41) 
CAMK2A

$$$$
CHEMBL1992581
     RDKit          2D

 26 28  0  0  0  0  0  0  0  0999 V2000
    5.2500   -1.2990    0.0000 F   0  0  0  0  0  0  0  0  0  0  0  0
    3.7500   -1.2990    0.0000 C   0  0  0  0  0  0  0  0  0  0  0  0
    3.0000   -2.5981    0.0000 F   0  0  0  0  0  0  0  0  0  0  0  0
    3.0000    0.0000    0.0000 S   0  0  0  0  0  0  0  0  0  0  0  0
    1.5000    0.0000    0.0000 C   0  0  0  0  0  0  0  0  0  0  0  0
    0.7500   -1.2990    0.0000 C   0  0  0  0  0  0  0  0  0  0  0  0
   -0.7500   -1.2990    0.0000 C   0  0  0  0  0  0  0  0  0  0  0  0
   -1.5000    0.0000    0.0000 C   0  0  0  0  0  0  0  0  0  0  0  0
   -3.0000    0.0000    0.0000 N   0  0  0  0  0  0  0  0  0  0  0  0
   -3.7500    1.2990    0.0000 C   0  0  0  0  0  0  0  0  0  0  0  0
   -3.0000    2.5981    0.0000 O   0  0  0  0  0  0  0  0  0  0  0  0
   -5.2500    1.2990    0.0000 C   0  0  0  0  0  0  0  0  0  0  0  0
   -6.0000    2.5981    0.0000 C   0  0  0  0  0  0  0  0  0  0  0  0
   -5.2500    3.8971    0.0000 C   0  0  0  0  0  0  0  0  0  0  0  0
   -6.0000    5.1962    0.0000 C   0  0  0  0  0  0  0  0  0  0  0  0
   -7.5000    5.1962    0.0000 C   0  0  0  0  0  0  0  0  0  0  0  0
   -8.2500    3.8971    0.0000 C   0  0  0  0  0  0  0  0  0  0  0  0
   -7.5000    2.5981    0.0000 C   0  0  0  0  0  0  0  0  0  0  0  0
   -8.2500    6.4952    0.0000 C   0  0  0  0  0  0  0  0  0  0  0  0
   -7.5000    7.7942    0.0000 C   0  0  0  0  0  0  0  0  0  0  0  0
   -8.2500    9.0933    0.0000 C   0  0  0  0  0  0  0  0  0  0  0  0
   -9.7500    9.0933    0.0000 C   0  0  0  0  0  0  0  0  0  0  0  0
  -10.5000    7.7942    0.0000 N   0  0  0  0  0  0  0  0  0  0  0  0
   -9.7500    6.4952    0.0000 C   0  0  0  0  0  0  0  0  0  0  0  0
   -0.7500    1.2990    0.0000 C   0  0  0  0  0  0  0  0  0  0  0  0
    0.7500    1.2990    0.0000 C   0  0  0  0  0  0  0  0  0  0  0  0
  1  2  1  0
  2  3  1  0
  2  4  1  0
  4  5  1  0
  5  6  2  0
  6  7  1  0
  7  8  2  0
  8  9  1  0
  9 10  1  0
 10 11  2  0
 10 12  1  0
 12 13  1  0
 13 14  2  0
 14 15  1  0
 15 16  2  0
 16 17  1  0
 17 18  2  0
 16 19  1  0
 19 20  2  0
 20 21  1  0
 21 22  2  0
 22 23  1  0
 23 24  2  0
  8 25  1  0
 25 26  2  0
 26  5  1  0
 18 13  1  0
 24 19  1  0
M  END
>  <activity_comment>  (42) 
active

>  <activity_id>  (42) 
9515354

>  <activity_properties>  (42) 
[]

>  <assay_chembl_id>  (42) 
CHEMBL1964111

>  <assay_description>  (42) 
PUBCHEM_BIOASSAY: Navigating the Kinome. (Class of assay: other) Panel member name: CAMK2A

>  <assay_type>  (42) 
F

>  <bao_endpoint>  (42) 
BAO_0000192

>  <bao_format>  (42) 
BAO_0000019

>  <bao_label>  (42) 
assay format

>  <canonical_smiles>  (42) 
FC(F)Sc1ccc(NC(=O)Cc2ccc(cc2)c3cccnc3)cc1

>  <data_validity_comment>  (42) 
nan

>  <data_validity_description>  (42) 
nan

>  <document_chembl_id>  (42) 
CHEMBL1201862

>  <document_journal>  (42) 
nan

>  <document_year>  (42) 
nan

>  <ligand_efficiency>  (42) 
nan

>  <molecule_pref_name>  (42) 
nan

>  <parent_molecule_chembl_id>  (42) 
CHEMBL1992581

>  <pchembl_value>  (42) 
5.4

>  <potential_duplicate>  (42) 
False

>  <qudt_units>  (42) 
http://www.openphacts.org/units/Nanomolar

>  <record_id>  (42) 
1585208

>  <relation>  (42) 
=

>  <src_id>  (42) 
7

>  <standard_flag>  (42) 
True

>  <standard_relation>  (42) 
=

>  <standard_text_value>  (42) 
nan

>  <standard_type>  (42) 
Ki

>  <standard_units>  (42) 
nM

>  <standard_upper_value>  (42) 
nan

>  <standard_value>  (42) 
3981.07

>  <target_chembl_id>  (42) 
CHEMBL4147

>  <target_organism>  (42) 
Homo sapiens

>  <target_pref_name>  (42) 
CaM kinase II alpha

>  <target_tax_id>  (42) 
9606

>  <text_value>  (42) 
nan

>  <toid>  (42) 
nan

>  <type>  (42) 
pKi

>  <units>  (42) 
nan

>  <uo_units>  (42) 
UO_0000065

>  <upper_value>  (42) 
nan

>  <value>  (42) 
5.4

>  <SMILES>  (42) 
FC(F)Sc1ccc(NC(=O)Cc2ccc(cc2)c3cccnc3)cc1

>  <NAME>  (42) 
CHEMBL1992581

>  <FILTER>  (42) 
OK

>  <MW>  (42) 
370.424

>  <LogP>  (42) 
5.2445

>  <HBD>  (42) 
1

>  <HBA>  (42) 
3

>  <TPSA>  (42) 
41.99

>  <Label>  (42) 
CAMK2A

$$$$
CHEMBL1971534
     RDKit          2D

 12 13  0  0  0  0  0  0  0  0999 V2000
   -1.2990   -5.8573    0.0000 N   0  0  0  0  0  0  0  0  0  0  0  0
   -0.0000   -5.1073    0.0000 C   0  0  0  0  0  0  0  0  0  0  0  0
    1.2990   -5.8573    0.0000 O   0  0  0  0  0  0  0  0  0  0  0  0
   -0.0000   -3.6073    0.0000 C   0  0  0  0  0  0  0  0  0  0  0  0
    1.2135   -2.7256    0.0000 C   0  0  0  0  0  0  0  0  0  0  0  0
    0.7500   -1.2990    0.0000 C   0  0  0  0  0  0  0  0  0  0  0  0
    1.5000    0.0000    0.0000 C   0  0  0  0  0  0  0  0  0  0  0  0
    0.7500    1.2990    0.0000 C   0  0  0  0  0  0  0  0  0  0  0  0
   -0.7500    1.2990    0.0000 N   0  0  0  0  0  0  0  0  0  0  0  0
   -1.5000    0.0000    0.0000 C   0  0  0  0  0  0  0  0  0  0  0  0
   -0.7500   -1.2990    0.0000 C   0  0  0  0  0  0  0  0  0  0  0  0
   -1.2135   -2.7256    0.0000 S   0  0  0  0  0  0  0  0  0  0  0  0
  1  2  1  0
  2  3  2  0
  2  4  1  0
  4  5  2  0
  5  6  1  0
  6  7  2  0
  7  8  1  0
  8  9  2  0
  9 10  1  0
 10 11  2  0
 11 12  1  0
 12  4  1  0
 11  6  1  0
M  END
>  <activity_comment>  (43) 
active

>  <activity_id>  (43) 
9515362

>  <activity_properties>  (43) 
[]

>  <assay_chembl_id>  (43) 
CHEMBL1964111

>  <assay_description>  (43) 
PUBCHEM_BIOASSAY: Navigating the Kinome. (Class of assay: other) Panel member name: CAMK2A

>  <assay_type>  (43) 
F

>  <bao_endpoint>  (43) 
BAO_0000192

>  <bao_format>  (43) 
BAO_0000019

>  <bao_label>  (43) 
assay format

>  <canonical_smiles>  (43) 
NC(=O)c1cc2ccncc2s1

>  <data_validity_comment>  (43) 
nan

>  <data_validity_description>  (43) 
nan

>  <document_chembl_id>  (43) 
CHEMBL1201862

>  <document_journal>  (43) 
nan

>  <document_year>  (43) 
nan

>  <ligand_efficiency>  (43) 
nan

>  <molecule_pref_name>  (43) 
nan

>  <parent_molecule_chembl_id>  (43) 
CHEMBL1971534

>  <pchembl_value>  (43) 
4.1

>  <potential_duplicate>  (43) 
False

>  <qudt_units>  (43) 
http://www.openphacts.org/units/Nanomolar

>  <record_id>  (43) 
1584922

>  <relation>  (43) 
=

>  <src_id>  (43) 
7

>  <standard_flag>  (43) 
True

>  <standard_relation>  (43) 
=

>  <standard_text_value>  (43) 
nan

>  <standard_type>  (43) 
Ki

>  <standard_units>  (43) 
nM

>  <standard_upper_value>  (43) 
nan

>  <standard_value>  (43) 
79432.82

>  <target_chembl_id>  (43) 
CHEMBL4147

>  <target_organism>  (43) 
Homo sapiens

>  <target_pref_name>  (43) 
CaM kinase II alpha

>  <target_tax_id>  (43) 
9606

>  <text_value>  (43) 
nan

>  <toid>  (43) 
nan

>  <type>  (43) 
pKi

>  <units>  (43) 
nan

>  <uo_units>  (43) 
UO_0000065

>  <upper_value>  (43) 
nan

>  <value>  (43) 
4.1

>  <SMILES>  (43) 
NC(=O)c1cc2ccncc2s1

>  <NAME>  (43) 
CHEMBL1971534

>  <FILTER>  (43) 
OK

>  <MW>  (43) 
178.216

>  <LogP>  (43) 
1.3952

>  <HBD>  (43) 
1

>  <HBA>  (43) 
3

>  <TPSA>  (43) 
55.98

>  <Label>  (43) 
CAMK2A

$$$$
CHEMBL1978371
     RDKit          2D

 30 33  0  0  0  0  0  0  0  0999 V2000
    3.0000    0.0000    0.0000 Cl  0  0  0  0  0  0  0  0  0  0  0  0
    1.5000    0.0000    0.0000 C   0  0  0  0  0  0  0  0  0  0  0  0
    0.7500   -1.2990    0.0000 C   0  0  0  0  0  0  0  0  0  0  0  0
   -0.7500   -1.2990    0.0000 C   0  0  0  0  0  0  0  0  0  0  0  0
   -1.5000    0.0000    0.0000 C   0  0  0  0  0  0  0  0  0  0  0  0
   -0.7500    1.2990    0.0000 C   0  0  0  0  0  0  0  0  0  0  0  0
    0.7500    1.2990    0.0000 C   0  0  0  0  0  0  0  0  0  0  0  0
   -3.0000    0.0000    0.0000 C   0  0  0  0  0  0  0  0  0  0  0  0
   -3.7500    1.2990    0.0000 C   0  0  0  0  0  0  0  0  0  0  0  0
   -5.2500    1.2990    0.0000 C   0  0  0  0  0  0  0  0  0  0  0  0
   -6.0000    0.0000    0.0000 C   0  0  0  0  0  0  0  0  0  0  0  0
   -7.5000    0.0000    0.0000 C   0  0  0  0  0  0  0  0  0  0  0  0
   -9.0000   -0.0000    0.0000 N   0  0  0  0  0  0  0  0  0  0  0  0
   -5.2500   -1.2990    0.0000 C   0  0  0  0  0  0  0  0  0  0  0  0
   -6.0000   -2.5981    0.0000 O   0  0  0  0  0  0  0  0  0  0  0  0
   -3.7500   -1.2990    0.0000 C   0  0  0  0  0  0  0  0  0  0  0  0
   -3.0000   -2.5981    0.0000 C   0  0  0  0  0  0  0  0  0  0  0  0
   -1.5000   -2.5981    0.0000 O   0  0  0  0  0  0  0  0  0  0  0  0
   -3.7500   -3.8971    0.0000 C   0  0  0  0  0  0  0  0  0  0  0  0
   -5.2500   -3.8971    0.0000 C   0  0  0  0  0  0  0  0  0  0  0  0
   -6.0000   -5.1962    0.0000 C   0  0  0  0  0  0  0  0  0  0  0  0
   -5.2500   -6.4952    0.0000 C   0  0  0  0  0  0  0  0  0  0  0  0
   -3.7500   -6.4952    0.0000 C   0  0  0  0  0  0  0  0  0  0  0  0
   -3.0000   -5.1962    0.0000 C   0  0  0  0  0  0  0  0  0  0  0  0
   -6.0000    2.5981    0.0000 C   0  0  0  0  0  0  0  0  0  0  0  0
   -5.2500    3.8971    0.0000 C   0  0  0  0  0  0  0  0  0  0  0  0
   -6.0000    5.1962    0.0000 C   0  0  0  0  0  0  0  0  0  0  0  0
   -7.5000    5.1962    0.0000 C   0  0  0  0  0  0  0  0  0  0  0  0
   -8.2500    3.8971    0.0000 C   0  0  0  0  0  0  0  0  0  0  0  0
   -7.5000    2.5981    0.0000 C   0  0  0  0  0  0  0  0  0  0  0  0
  1  2  1  0
  2  3  2  0
  3  4  1  0
  4  5  2  0
  5  6  1  0
  6  7  2  0
  5  8  1  0
  8  9  1  0
  9 10  1  0
 10 11  2  0
 11 12  1  0
 12 13  3  0
 11 14  1  0
 14 15  2  0
 14 16  1  0
 16 17  1  0
 17 18  2  0
 17 19  1  0
 19 20  2  0
 20 21  1  0
 21 22  2  0
 22 23  1  0
 23 24  2  0
 10 25  1  0
 25 26  2  0
 26 27  1  0
 27 28  2  0
 28 29  1  0
 29 30  2  0
  7  2  1  0
 16  8  1  0
 24 19  1  0
 30 25  1  0
M  END
>  <activity_comment>  (44) 
active

>  <activity_id>  (44) 
9515370

>  <activity_properties>  (44) 
[]

>  <assay_chembl_id>  (44) 
CHEMBL1964111

>  <assay_description>  (44) 
PUBCHEM_BIOASSAY: Navigating the Kinome. (Class of assay: other) Panel member name: CAMK2A

>  <assay_type>  (44) 
F

>  <bao_endpoint>  (44) 
BAO_0000192

>  <bao_format>  (44) 
BAO_0000019

>  <bao_label>  (44) 
assay format

>  <canonical_smiles>  (44) 
Clc1ccc(cc1)C2CC(=C(C#N)C(=O)C2C(=O)c3ccccc3)c4ccccc4

>  <data_validity_comment>  (44) 
nan

>  <data_validity_description>  (44) 
nan

>  <document_chembl_id>  (44) 
CHEMBL1201862

>  <document_journal>  (44) 
nan

>  <document_year>  (44) 
nan

>  <ligand_efficiency>  (44) 
nan

>  <molecule_pref_name>  (44) 
nan

>  <parent_molecule_chembl_id>  (44) 
CHEMBL1978371

>  <pchembl_value>  (44) 
5.5

>  <potential_duplicate>  (44) 
False

>  <qudt_units>  (44) 
http://www.openphacts.org/units/Nanomolar

>  <record_id>  (44) 
1585385

>  <relation>  (44) 
=

>  <src_id>  (44) 
7

>  <standard_flag>  (44) 
True

>  <standard_relation>  (44) 
=

>  <standard_text_value>  (44) 
nan

>  <standard_type>  (44) 
Ki

>  <standard_units>  (44) 
nM

>  <standard_upper_value>  (44) 
nan

>  <standard_value>  (44) 
3162.28

>  <target_chembl_id>  (44) 
CHEMBL4147

>  <target_organism>  (44) 
Homo sapiens

>  <target_pref_name>  (44) 
CaM kinase II alpha

>  <target_tax_id>  (44) 
9606

>  <text_value>  (44) 
nan

>  <toid>  (44) 
nan

>  <type>  (44) 
pKi

>  <units>  (44) 
nan

>  <uo_units>  (44) 
UO_0000065

>  <upper_value>  (44) 
nan

>  <value>  (44) 
5.5

>  <SMILES>  (44) 
Clc1ccc(cc1)C2CC(=C(C#N)C(=O)C2C(=O)c3ccccc3)c4ccccc4

>  <NAME>  (44) 
CHEMBL1978371

>  <FILTER>  (44) 
OK

>  <MW>  (44) 
411.888

>  <LogP>  (44) 
5.87288

>  <HBD>  (44) 
0

>  <HBA>  (44) 
3

>  <TPSA>  (44) 
57.93

>  <Label>  (44) 
CAMK2A

$$$$
CHEMBL1974617
     RDKit          2D

 16 18  0  0  0  0  0  0  0  0999 V2000
   -7.2690    6.7389    0.0000 O   0  0  0  0  0  0  0  0  0  0  0  0
   -6.6589    5.3686    0.0000 C   0  0  0  0  0  0  0  0  0  0  0  0
   -5.1671    5.2118    0.0000 C   0  0  0  0  0  0  0  0  0  0  0  0
   -4.4171    3.9127    0.0000 C   0  0  0  0  0  0  0  0  0  0  0  0
   -2.9499    4.2246    0.0000 C   0  0  0  0  0  0  0  0  0  0  0  0
   -2.7931    5.7164    0.0000 O   0  0  0  0  0  0  0  0  0  0  0  0
   -4.1634    6.3265    0.0000 N   0  0  0  0  0  0  0  0  0  0  0  0
   -1.8351    3.2209    0.0000 C   0  0  0  0  0  0  0  0  0  0  0  0
   -0.4086    3.6844    0.0000 C   0  0  0  0  0  0  0  0  0  0  0  0
    0.7062    2.6807    0.0000 C   0  0  0  0  0  0  0  0  0  0  0  0
    0.3943    1.2135    0.0000 C   0  0  0  0  0  0  0  0  0  0  0  0
    1.2760    0.0000    0.0000 N   0  0  0  0  0  0  0  0  0  0  0  0
    0.3943   -1.2135    0.0000 N   0  0  0  0  0  0  0  0  0  0  0  0
   -1.0323   -0.7500    0.0000 C   0  0  0  0  0  0  0  0  0  0  0  0
   -1.0323    0.7500    0.0000 C   0  0  0  0  0  0  0  0  0  0  0  0
   -2.1470    1.7537    0.0000 C   0  0  0  0  0  0  0  0  0  0  0  0
  1  2  1  0
  2  3  1  0
  3  4  1  0
  4  5  2  0
  5  6  1  0
  6  7  1  0
  5  8  1  0
  8  9  2  0
  9 10  1  0
 10 11  2  0
 11 12  1  0
 12 13  1  0
 13 14  2  0
 14 15  1  0
 15 16  2  0
  7  3  2  0
 16  8  1  0
 15 11  1  0
M  END
>  <activity_comment>  (45) 
active

>  <activity_id>  (45) 
9515377

>  <activity_properties>  (45) 
[]

>  <assay_chembl_id>  (45) 
CHEMBL1964111

>  <assay_description>  (45) 
PUBCHEM_BIOASSAY: Navigating the Kinome. (Class of assay: other) Panel member name: CAMK2A

>  <assay_type>  (45) 
F

>  <bao_endpoint>  (45) 
BAO_0000192

>  <bao_format>  (45) 
BAO_0000019

>  <bao_label>  (45) 
assay format

>  <canonical_smiles>  (45) 
OCc1cc(on1)c2ccc3[nH]ncc3c2

>  <data_validity_comment>  (45) 
nan

>  <data_validity_description>  (45) 
nan

>  <document_chembl_id>  (45) 
CHEMBL1201862

>  <document_journal>  (45) 
nan

>  <document_year>  (45) 
nan

>  <ligand_efficiency>  (45) 
nan

>  <molecule_pref_name>  (45) 
nan

>  <parent_molecule_chembl_id>  (45) 
CHEMBL1974617

>  <pchembl_value>  (45) 
4.1

>  <potential_duplicate>  (45) 
False

>  <qudt_units>  (45) 
http://www.openphacts.org/units/Nanomolar

>  <record_id>  (45) 
1584388

>  <relation>  (45) 
=

>  <src_id>  (45) 
7

>  <standard_flag>  (45) 
True

>  <standard_relation>  (45) 
=

>  <standard_text_value>  (45) 
nan

>  <standard_type>  (45) 
Ki

>  <standard_units>  (45) 
nM

>  <standard_upper_value>  (45) 
nan

>  <standard_value>  (45) 
79432.82

>  <target_chembl_id>  (45) 
CHEMBL4147

>  <target_organism>  (45) 
Homo sapiens

>  <target_pref_name>  (45) 
CaM kinase II alpha

>  <target_tax_id>  (45) 
9606

>  <text_value>  (45) 
nan

>  <toid>  (45) 
nan

>  <type>  (45) 
pKi

>  <units>  (45) 
nan

>  <uo_units>  (45) 
UO_0000065

>  <upper_value>  (45) 
nan

>  <value>  (45) 
4.1

>  <SMILES>  (45) 
OCc1cc(on1)c2ccc3[nH]ncc3c2

>  <NAME>  (45) 
CHEMBL1974617

>  <FILTER>  (45) 
OK

>  <MW>  (45) 
215.212

>  <LogP>  (45) 
1.7102

>  <HBD>  (45) 
2

>  <HBA>  (45) 
4

>  <TPSA>  (45) 
74.94

>  <Label>  (45) 
CAMK2A

$$$$
CHEMBL1992125
     RDKit          2D

 30 33  0  0  0  0  0  0  0  0999 V2000
   -5.2500   -3.8971    0.0000 C   0  0  0  0  0  0  0  0  0  0  0  0
   -3.7500   -3.8971    0.0000 O   0  0  0  0  0  0  0  0  0  0  0  0
   -3.0000   -5.1962    0.0000 C   0  0  0  0  0  0  0  0  0  0  0  0
   -1.5000   -5.1962    0.0000 C   0  0  0  0  0  0  0  0  0  0  0  0
   -0.7500   -6.4952    0.0000 C   0  0  0  0  0  0  0  0  0  0  0  0
    0.7500   -6.4952    0.0000 N   0  0  0  0  0  0  0  0  0  0  0  0
    1.5000   -5.1962    0.0000 C   0  0  0  0  0  0  0  0  0  0  0  0
    3.0000   -5.1962    0.0000 N   0  0  0  0  0  0  0  0  0  0  0  0
    3.7500   -3.8971    0.0000 C   0  0  0  0  0  0  0  0  0  0  0  0
    3.0000   -2.5981    0.0000 N   0  0  0  0  0  0  0  0  0  0  0  0
    1.5000   -2.5981    0.0000 C   0  0  0  0  0  0  0  0  0  0  0  0
    0.7500   -3.8971    0.0000 N   0  0  0  0  0  0  0  0  0  0  0  0
    0.7500   -1.2990    0.0000 N   0  0  0  0  0  0  0  0  0  0  0  0
    1.5000    0.0000    0.0000 C   0  0  0  0  0  0  0  0  0  0  0  0
    0.7500    1.2990    0.0000 C   0  0  0  0  0  0  0  0  0  0  0  0
   -0.7500    1.2990    0.0000 C   0  0  0  0  0  0  0  0  0  0  0  0
   -1.5000    0.0000    0.0000 C   0  0  0  0  0  0  0  0  0  0  0  0
   -3.0000    0.0000    0.0000 C   0  0  0  0  0  0  0  0  0  0  0  0
   -3.7500   -1.2990    0.0000 C   0  0  0  0  0  0  0  0  0  0  0  0
   -5.2500   -1.2990    0.0000 C   0  0  0  0  0  0  0  0  0  0  0  0
   -3.0000   -2.5981    0.0000 C   0  0  0  0  0  0  0  0  0  0  0  0
   -1.5000   -2.5981    0.0000 C   0  0  0  0  0  0  0  0  0  0  0  0
   -0.7500   -1.2990    0.0000 C   0  0  0  0  0  0  0  0  0  0  0  0
   -1.5000   -7.7942    0.0000 C   0  0  0  0  0  0  0  0  0  0  0  0
   -3.0000   -7.7942    0.0000 C   0  0  0  0  0  0  0  0  0  0  0  0
   -3.7500   -9.0933    0.0000 O   0  0  0  0  0  0  0  0  0  0  0  0
   -5.2500   -9.0933    0.0000 C   0  0  0  0  0  0  0  0  0  0  0  0
   -3.7500   -6.4952    0.0000 C   0  0  0  0  0  0  0  0  0  0  0  0
   -5.2500   -6.4952    0.0000 O   0  0  0  0  0  0  0  0  0  0  0  0
   -6.0000   -5.1962    0.0000 C   0  0  0  0  0  0  0  0  0  0  0  0
  1  2  1  0
  2  3  1  0
  3  4  2  0
  4  5  1  0
  5  6  1  0
  6  7  1  0
  7  8  2  0
  8  9  1  0
  9 10  2  0
 10 11  1  0
 11 12  2  0
 11 13  1  0
 13 14  1  0
 14 15  1  0
 15 16  1  0
 16 17  1  0
 17 18  2  0
 18 19  1  0
 19 20  1  0
 19 21  2  0
 21 22  1  0
 22 23  2  0
  5 24  2  0
 24 25  1  0
 25 26  1  0
 26 27  1  0
 25 28  2  0
 28 29  1  0
 29 30  1  0
 28  3  1  0
 12  7  1  0
 23 13  1  0
 23 17  1  0
M  END
>  <activity_comment>  (46) 
active

>  <activity_id>  (46) 
9515380

>  <activity_properties>  (46) 
[]

>  <assay_chembl_id>  (46) 
CHEMBL1964111

>  <assay_description>  (46) 
PUBCHEM_BIOASSAY: Navigating the Kinome. (Class of assay: other) Panel member name: CAMK2A

>  <assay_type>  (46) 
F

>  <bao_endpoint>  (46) 
BAO_0000192

>  <bao_format>  (46) 
BAO_0000019

>  <bao_label>  (46) 
assay format

>  <canonical_smiles>  (46) 
COc1cc(Nc2ncnc(n2)N3CCCc4cc(C)ccc34)cc(OC)c1OC

>  <data_validity_comment>  (46) 
nan

>  <data_validity_description>  (46) 
nan

>  <document_chembl_id>  (46) 
CHEMBL1201862

>  <document_journal>  (46) 
nan

>  <document_year>  (46) 
nan

>  <ligand_efficiency>  (46) 
nan

>  <molecule_pref_name>  (46) 
nan

>  <parent_molecule_chembl_id>  (46) 
CHEMBL1992125

>  <pchembl_value>  (46) 
5.4

>  <potential_duplicate>  (46) 
False

>  <qudt_units>  (46) 
http://www.openphacts.org/units/Nanomolar

>  <record_id>  (46) 
1585095

>  <relation>  (46) 
=

>  <src_id>  (46) 
7

>  <standard_flag>  (46) 
True

>  <standard_relation>  (46) 
=

>  <standard_text_value>  (46) 
nan

>  <standard_type>  (46) 
Ki

>  <standard_units>  (46) 
nM

>  <standard_upper_value>  (46) 
nan

>  <standard_value>  (46) 
3981.07

>  <target_chembl_id>  (46) 
CHEMBL4147

>  <target_organism>  (46) 
Homo sapiens

>  <target_pref_name>  (46) 
CaM kinase II alpha

>  <target_tax_id>  (46) 
9606

>  <text_value>  (46) 
nan

>  <toid>  (46) 
nan

>  <type>  (46) 
pKi

>  <units>  (46) 
nan

>  <uo_units>  (46) 
UO_0000065

>  <upper_value>  (46) 
nan

>  <value>  (46) 
5.4

>  <SMILES>  (46) 
COc1cc(Nc2ncnc(n2)N3CCCc4cc(C)ccc34)cc(OC)c1OC

>  <NAME>  (46) 
CHEMBL1992125

>  <FILTER>  (46) 
OK

>  <MW>  (46) 
407.474

>  <LogP>  (46) 
4.03372

>  <HBD>  (46) 
1

>  <HBA>  (46) 
8

>  <TPSA>  (46) 
81.63

>  <Label>  (46) 
CAMK2A

$$$$
CHEMBL2001539
     RDKit          2D

 12 14  0  0  0  0  0  0  0  0999 V2000
   -0.4086    3.6844    0.0000 C   0  0  0  0  0  0  0  0  0  0  0  0
    0.7062    2.6807    0.0000 C   0  0  0  0  0  0  0  0  0  0  0  0
    0.3943    1.2135    0.0000 C   0  0  0  0  0  0  0  0  0  0  0  0
    1.2760    0.0000    0.0000 S   0  0  0  0  0  0  0  0  0  0  0  0
    0.3943   -1.2135    0.0000 C   0  0  0  0  0  0  0  0  0  0  0  0
   -1.0323   -0.7500    0.0000 C   0  0  0  0  0  0  0  0  0  0  0  0
   -1.0323    0.7500    0.0000 C   0  0  0  0  0  0  0  0  0  0  0  0
   -2.1470    1.7537    0.0000 C   0  0  0  0  0  0  0  0  0  0  0  0
   -3.6388    1.5969    0.0000 N   0  0  0  0  0  0  0  0  0  0  0  0
   -4.2489    2.9672    0.0000 N   0  0  0  0  0  0  0  0  0  0  0  0
   -3.1342    3.9709    0.0000 C   0  0  0  0  0  0  0  0  0  0  0  0
   -1.8351    3.2209    0.0000 C   0  0  0  0  0  0  0  0  0  0  0  0
  1  2  1  0
  2  3  1  0
  3  4  1  0
  4  5  1  0
  5  6  2  0
  6  7  1  0
  7  8  1  0
  8  9  1  0
  9 10  1  0
 10 11  2  0
 11 12  1  0
 12  1  1  0
  7  3  2  0
 12  8  2  0
M  END
>  <activity_comment>  (47) 
active

>  <activity_id>  (47) 
9515386

>  <activity_properties>  (47) 
[]

>  <assay_chembl_id>  (47) 
CHEMBL1964111

>  <assay_description>  (47) 
PUBCHEM_BIOASSAY: Navigating the Kinome. (Class of assay: other) Panel member name: CAMK2A

>  <assay_type>  (47) 
F

>  <bao_endpoint>  (47) 
BAO_0000192

>  <bao_format>  (47) 
BAO_0000019

>  <bao_label>  (47) 
assay format

>  <canonical_smiles>  (47) 
C1Cc2sccc2c3[nH]ncc13

>  <data_validity_comment>  (47) 
nan

>  <data_validity_description>  (47) 
nan

>  <document_chembl_id>  (47) 
CHEMBL1201862

>  <document_journal>  (47) 
nan

>  <document_year>  (47) 
nan

>  <ligand_efficiency>  (47) 
nan

>  <molecule_pref_name>  (47) 
nan

>  <parent_molecule_chembl_id>  (47) 
CHEMBL2001539

>  <pchembl_value>  (47) 
4.3

>  <potential_duplicate>  (47) 
False

>  <qudt_units>  (47) 
http://www.openphacts.org/units/Nanomolar

>  <record_id>  (47) 
1585462

>  <relation>  (47) 
=

>  <src_id>  (47) 
7

>  <standard_flag>  (47) 
True

>  <standard_relation>  (47) 
=

>  <standard_text_value>  (47) 
nan

>  <standard_type>  (47) 
Ki

>  <standard_units>  (47) 
nM

>  <standard_upper_value>  (47) 
nan

>  <standard_value>  (47) 
50118.72

>  <target_chembl_id>  (47) 
CHEMBL4147

>  <target_organism>  (47) 
Homo sapiens

>  <target_pref_name>  (47) 
CaM kinase II alpha

>  <target_tax_id>  (47) 
9606

>  <text_value>  (47) 
nan

>  <toid>  (47) 
nan

>  <type>  (47) 
pKi

>  <units>  (47) 
nan

>  <uo_units>  (47) 
UO_0000065

>  <upper_value>  (47) 
nan

>  <value>  (47) 
4.3

>  <SMILES>  (47) 
C1Cc2sccc2c3[nH]ncc13

>  <NAME>  (47) 
CHEMBL2001539

>  <FILTER>  (47) 
OK

>  <MW>  (47) 
176.244

>  <LogP>  (47) 
2.2368

>  <HBD>  (47) 
1

>  <HBA>  (47) 
2

>  <TPSA>  (47) 
28.68

>  <Label>  (47) 
CAMK2A

$$$$
CHEMBL1997041
     RDKit          2D

 17 19  0  0  0  0  0  0  0  0999 V2000
   -7.2296    2.8340    0.0000 C   0  0  0  0  0  0  0  0  0  0  0  0
   -6.1149    1.8303    0.0000 C   0  0  0  0  0  0  0  0  0  0  0  0
   -4.6883    2.2939    0.0000 C   0  0  0  0  0  0  0  0  0  0  0  0
   -3.5736    1.2902    0.0000 C   0  0  0  0  0  0  0  0  0  0  0  0
   -3.8855   -0.1771    0.0000 C   0  0  0  0  0  0  0  0  0  0  0  0
   -5.3120   -0.6406    0.0000 C   0  0  0  0  0  0  0  0  0  0  0  0
   -6.4268    0.3631    0.0000 C   0  0  0  0  0  0  0  0  0  0  0  0
   -7.8533   -0.1004    0.0000 F   0  0  0  0  0  0  0  0  0  0  0  0
   -2.1470    1.7537    0.0000 C   0  0  0  0  0  0  0  0  0  0  0  0
   -1.8351    3.2209    0.0000 N   0  0  0  0  0  0  0  0  0  0  0  0
   -0.4086    3.6844    0.0000 C   0  0  0  0  0  0  0  0  0  0  0  0
    0.7062    2.6807    0.0000 N   0  0  0  0  0  0  0  0  0  0  0  0
    0.3943    1.2135    0.0000 C   0  0  0  0  0  0  0  0  0  0  0  0
    1.2760    0.0000    0.0000 N   0  0  0  0  0  0  0  0  0  0  0  0
    0.3943   -1.2135    0.0000 C   0  0  0  0  0  0  0  0  0  0  0  0
   -1.0323   -0.7500    0.0000 C   0  0  0  0  0  0  0  0  0  0  0  0
   -1.0323    0.7500    0.0000 C   0  0  0  0  0  0  0  0  0  0  0  0
  1  2  1  0
  2  3  2  0
  3  4  1  0
  4  5  2  0
  5  6  1  0
  6  7  2  0
  7  8  1  0
  4  9  1  0
  9 10  2  0
 10 11  1  0
 11 12  2  0
 12 13  1  0
 13 14  1  0
 14 15  1  0
 15 16  2  0
 16 17  1  0
  7  2  1  0
 17  9  1  0
 17 13  2  0
M  END
>  <activity_comment>  (48) 
active

>  <activity_id>  (48) 
9515388

>  <activity_properties>  (48) 
[]

>  <assay_chembl_id>  (48) 
CHEMBL1964111

>  <assay_description>  (48) 
PUBCHEM_BIOASSAY: Navigating the Kinome. (Class of assay: other) Panel member name: CAMK2A

>  <assay_type>  (48) 
F

>  <bao_endpoint>  (48) 
BAO_0000192

>  <bao_format>  (48) 
BAO_0000019

>  <bao_label>  (48) 
assay format

>  <canonical_smiles>  (48) 
Cc1cc(ccc1F)c2ncnc3[nH]ccc23

>  <data_validity_comment>  (48) 
nan

>  <data_validity_description>  (48) 
nan

>  <document_chembl_id>  (48) 
CHEMBL1201862

>  <document_journal>  (48) 
nan

>  <document_year>  (48) 
nan

>  <ligand_efficiency>  (48) 
nan

>  <molecule_pref_name>  (48) 
nan

>  <parent_molecule_chembl_id>  (48) 
CHEMBL1997041

>  <pchembl_value>  (48) 
4.8

>  <potential_duplicate>  (48) 
False

>  <qudt_units>  (48) 
http://www.openphacts.org/units/Nanomolar

>  <record_id>  (48) 
1585157

>  <relation>  (48) 
=

>  <src_id>  (48) 
7

>  <standard_flag>  (48) 
True

>  <standard_relation>  (48) 
=

>  <standard_text_value>  (48) 
nan

>  <standard_type>  (48) 
Ki

>  <standard_units>  (48) 
nM

>  <standard_upper_value>  (48) 
nan

>  <standard_value>  (48) 
15848.93

>  <target_chembl_id>  (48) 
CHEMBL4147

>  <target_organism>  (48) 
Homo sapiens

>  <target_pref_name>  (48) 
CaM kinase II alpha

>  <target_tax_id>  (48) 
9606

>  <text_value>  (48) 
nan

>  <toid>  (48) 
nan

>  <type>  (48) 
pKi

>  <units>  (48) 
nan

>  <uo_units>  (48) 
UO_0000065

>  <upper_value>  (48) 
nan

>  <value>  (48) 
4.8

>  <SMILES>  (48) 
Cc1cc(ccc1F)c2ncnc3[nH]ccc23

>  <NAME>  (48) 
CHEMBL1997041

>  <FILTER>  (48) 
OK

>  <MW>  (48) 
227.242

>  <LogP>  (48) 
3.07242

>  <HBD>  (48) 
1

>  <HBA>  (48) 
2

>  <TPSA>  (48) 
41.57

>  <Label>  (48) 
CAMK2A

$$$$
CHEMBL550418
     RDKit          2D

 26 29  0  0  0  0  0  0  0  0999 V2000
   -0.7500   -6.4952    0.0000 C   0  0  0  0  0  0  0  0  0  0  0  0
    0.7500   -6.4952    0.0000 O   0  0  0  0  0  0  0  0  0  0  0  0
    1.5000   -5.1962    0.0000 C   0  0  0  0  0  0  0  0  0  0  0  0
    0.7500   -3.8971    0.0000 C   0  0  0  0  0  0  0  0  0  0  0  0
    1.5000   -2.5981    0.0000 C   0  0  0  0  0  0  0  0  0  0  0  0
    3.0000   -2.5981    0.0000 C   0  0  0  0  0  0  0  0  0  0  0  0
    3.7500   -3.8971    0.0000 C   0  0  0  0  0  0  0  0  0  0  0  0
    3.0000   -5.1962    0.0000 C   0  0  0  0  0  0  0  0  0  0  0  0
    3.7500   -6.4952    0.0000 O   0  0  0  0  0  0  0  0  0  0  0  0
    0.7500   -1.2990    0.0000 C   0  0  0  0  0  0  0  0  0  0  0  0
    1.5000    0.0000    0.0000 C   0  0  0  0  0  0  0  0  0  0  0  0
    0.7500    1.2990    0.0000 C   0  0  0  0  0  0  0  0  0  0  0  0
   -0.7500    1.2990    0.0000 C   0  0  0  0  0  0  0  0  0  0  0  0
   -1.2980    2.6953    0.0000 C   0  0  0  0  0  0  0  0  0  0  0  0
   -0.2778    3.7949    0.0000 O   0  0  0  0  0  0  0  0  0  0  0  0
   -2.7314    3.1375    0.0000 N   0  0  0  0  0  0  0  0  0  0  0  0
   -3.9707    2.2925    0.0000 C   0  0  0  0  0  0  0  0  0  0  0  0
   -5.2101    3.1375    0.0000 C   0  0  0  0  0  0  0  0  0  0  0  0
   -6.5615    2.4867    0.0000 C   0  0  0  0  0  0  0  0  0  0  0  0
   -6.6736    0.9909    0.0000 C   0  0  0  0  0  0  0  0  0  0  0  0
   -5.4343    0.1459    0.0000 C   0  0  0  0  0  0  0  0  0  0  0  0
   -5.5464   -1.3499    0.0000 O   0  0  0  0  0  0  0  0  0  0  0  0
   -4.0828    0.7967    0.0000 C   0  0  0  0  0  0  0  0  0  0  0  0
   -2.9832   -0.2236    0.0000 N   0  0  0  0  0  0  0  0  0  0  0  0
   -1.5000    0.0000    0.0000 C   0  0  0  0  0  0  0  0  0  0  0  0
   -0.7500   -1.2990    0.0000 C   0  0  0  0  0  0  0  0  0  0  0  0
  1  2  1  0
  2  3  1  0
  3  4  2  0
  4  5  1  0
  5  6  2  0
  6  7  1  0
  7  8  2  0
  8  9  1  0
  5 10  1  0
 10 11  2  0
 11 12  1  0
 12 13  2  0
 13 14  1  0
 14 15  2  0
 14 16  1  0
 16 17  1  0
 17 18  2  0
 18 19  1  0
 19 20  2  0
 20 21  1  0
 21 22  1  0
 21 23  2  0
 23 24  1  0
 24 25  1  0
 25 26  2  0
  8  3  1  0
 26 10  1  0
 25 13  1  0
 23 17  1  0
M  END
>  <activity_comment>  (49) 
active

>  <activity_id>  (49) 
9515389

>  <activity_properties>  (49) 
[]

>  <assay_chembl_id>  (49) 
CHEMBL1964111

>  <assay_description>  (49) 
PUBCHEM_BIOASSAY: Navigating the Kinome. (Class of assay: other) Panel member name: CAMK2A

>  <assay_type>  (49) 
F

>  <bao_endpoint>  (49) 
BAO_0000192

>  <bao_format>  (49) 
BAO_0000019

>  <bao_label>  (49) 
assay format

>  <canonical_smiles>  (49) 
COc1cc(ccc1O)c2ccc3C(=O)Nc4cccc(O)c4Nc3c2

>  <data_validity_comment>  (49) 
nan

>  <data_validity_description>  (49) 
nan

>  <document_chembl_id>  (49) 
CHEMBL1201862

>  <document_journal>  (49) 
nan

>  <document_year>  (49) 
nan

>  <ligand_efficiency>  (49) 
nan

>  <molecule_pref_name>  (49) 
nan

>  <parent_molecule_chembl_id>  (49) 
CHEMBL550418

>  <pchembl_value>  (49) 
5.4

>  <potential_duplicate>  (49) 
False

>  <qudt_units>  (49) 
http://www.openphacts.org/units/Nanomolar

>  <record_id>  (49) 
1584590

>  <relation>  (49) 
=

>  <src_id>  (49) 
7

>  <standard_flag>  (49) 
True

>  <standard_relation>  (49) 
=

>  <standard_text_value>  (49) 
nan

>  <standard_type>  (49) 
Ki

>  <standard_units>  (49) 
nM

>  <standard_upper_value>  (49) 
nan

>  <standard_value>  (49) 
3981.07

>  <target_chembl_id>  (49) 
CHEMBL4147

>  <target_organism>  (49) 
Homo sapiens

>  <target_pref_name>  (49) 
CaM kinase II alpha

>  <target_tax_id>  (49) 
9606

>  <text_value>  (49) 
nan

>  <toid>  (49) 
nan

>  <type>  (49) 
pKi

>  <units>  (49) 
nan

>  <uo_units>  (49) 
UO_0000065

>  <upper_value>  (49) 
nan

>  <value>  (49) 
5.4

>  <SMILES>  (49) 
COc1cc(ccc1O)c2ccc3C(=O)Nc4cccc(O)c4Nc3c2

>  <NAME>  (49) 
CHEMBL550418

>  <FILTER>  (49) 
OK

>  <MW>  (49) 
348.358

>  <LogP>  (49) 
4.0827

>  <HBD>  (49) 
4

>  <HBA>  (49) 
5

>  <TPSA>  (49) 
90.82

>  <Label>  (49) 
CAMK2A

$$$$
CHEMBL1969664
     RDKit          2D

 25 28  0  0  0  0  0  0  0  0999 V2000
   -0.0000   -5.1073    0.0000 O   0  0  0  0  0  0  0  0  0  0  0  0
   -0.0000   -3.6073    0.0000 C   0  0  0  0  0  0  0  0  0  0  0  0
    1.2135   -2.7256    0.0000 N   0  0  0  0  0  0  0  0  0  0  0  0
    0.7500   -1.2990    0.0000 C   0  0  0  0  0  0  0  0  0  0  0  0
    1.5000    0.0000    0.0000 C   0  0  0  0  0  0  0  0  0  0  0  0
    0.7500    1.2990    0.0000 C   0  0  0  0  0  0  0  0  0  0  0  0
   -0.7500    1.2990    0.0000 C   0  0  0  0  0  0  0  0  0  0  0  0
   -1.5000    0.0000    0.0000 C   0  0  0  0  0  0  0  0  0  0  0  0
   -0.7500   -1.2990    0.0000 C   0  0  0  0  0  0  0  0  0  0  0  0
   -1.2135   -2.7256    0.0000 C   0  0  0  0  0  0  0  0  0  0  0  0
   -2.6401   -3.1891    0.0000 C   0  0  0  0  0  0  0  0  0  0  0  0
   -3.7548   -2.1855    0.0000 C   0  0  0  0  0  0  0  0  0  0  0  0
   -5.1814   -2.6490    0.0000 C   0  0  0  0  0  0  0  0  0  0  0  0
   -5.4933   -4.1162    0.0000 C   0  0  0  0  0  0  0  0  0  0  0  0
   -6.9199   -4.5797    0.0000 C   0  0  0  0  0  0  0  0  0  0  0  0
   -8.0346   -3.5760    0.0000 N   0  0  0  0  0  0  0  0  0  0  0  0
   -7.7227   -2.1088    0.0000 C   0  0  0  0  0  0  0  0  0  0  0  0
   -8.8374   -1.1051    0.0000 C   0  0  0  0  0  0  0  0  0  0  0  0
  -10.2640   -1.5686    0.0000 O   0  0  0  0  0  0  0  0  0  0  0  0
  -10.5759   -3.0359    0.0000 C   0  0  0  0  0  0  0  0  0  0  0  0
   -9.4612   -4.0396    0.0000 C   0  0  0  0  0  0  0  0  0  0  0  0
   -4.3786   -5.1199    0.0000 C   0  0  0  0  0  0  0  0  0  0  0  0
   -2.9520   -4.6564    0.0000 N   0  0  0  0  0  0  0  0  0  0  0  0
   -1.5000    2.5981    0.0000 C   0  0  0  0  0  0  0  0  0  0  0  0
   -2.2500    3.8971    0.0000 N   0  0  0  0  0  0  0  0  0  0  0  0
  1  2  1  0
  2  3  1  0
  3  4  1  0
  4  5  2  0
  5  6  1  0
  6  7  2  0
  7  8  1  0
  8  9  2  0
  9 10  1  0
 10 11  1  0
 11 12  2  0
 12 13  1  0
 13 14  2  0
 14 15  1  0
 15 16  1  0
 16 17  1  0
 17 18  1  0
 18 19  1  0
 19 20  1  0
 20 21  1  0
 14 22  1  0
 22 23  2  0
  7 24  1  0
 24 25  3  0
 10  2  2  0
  9  4  1  0
 23 11  1  0
 21 16  1  0
M  END
>  <activity_comment>  (50) 
active

>  <activity_id>  (50) 
9515390

>  <activity_properties>  (50) 
[]

>  <assay_chembl_id>  (50) 
CHEMBL1964111

>  <assay_description>  (50) 
PUBCHEM_BIOASSAY: Navigating the Kinome. (Class of assay: other) Panel member name: CAMK2A

>  <assay_type>  (50) 
F

>  <bao_endpoint>  (50) 
BAO_0000192

>  <bao_format>  (50) 
BAO_0000019

>  <bao_label>  (50) 
assay format

>  <canonical_smiles>  (50) 
Oc1[nH]c2ccc(cc2c1c3ccc(CN4CCOCC4)cn3)C#N

>  <data_validity_comment>  (50) 
nan

>  <data_validity_description>  (50) 
nan

>  <document_chembl_id>  (50) 
CHEMBL1201862

>  <document_journal>  (50) 
nan

>  <document_year>  (50) 
nan

>  <ligand_efficiency>  (50) 
nan

>  <molecule_pref_name>  (50) 
AZD-1080

>  <parent_molecule_chembl_id>  (50) 
CHEMBL1969664

>  <pchembl_value>  (50) 
5.2

>  <potential_duplicate>  (50) 
False

>  <qudt_units>  (50) 
http://www.openphacts.org/units/Nanomolar

>  <record_id>  (50) 
1585045

>  <relation>  (50) 
=

>  <src_id>  (50) 
7

>  <standard_flag>  (50) 
True

>  <standard_relation>  (50) 
=

>  <standard_text_value>  (50) 
nan

>  <standard_type>  (50) 
Ki

>  <standard_units>  (50) 
nM

>  <standard_upper_value>  (50) 
nan

>  <standard_value>  (50) 
6309.57

>  <target_chembl_id>  (50) 
CHEMBL4147

>  <target_organism>  (50) 
Homo sapiens

>  <target_pref_name>  (50) 
CaM kinase II alpha

>  <target_tax_id>  (50) 
9606

>  <text_value>  (50) 
nan

>  <toid>  (50) 
nan

>  <type>  (50) 
pKi

>  <units>  (50) 
nan

>  <uo_units>  (50) 
UO_0000065

>  <upper_value>  (50) 
nan

>  <value>  (50) 
5.2

>  <SMILES>  (50) 
Oc1[nH]c2ccc(cc2c1c3ccc(CN4CCOCC4)cn3)C#N

>  <NAME>  (50) 
CHEMBL1969664

>  <FILTER>  (50) 
OK

>  <MW>  (50) 
334.379

>  <LogP>  (50) 
2.63938

>  <HBD>  (50) 
2

>  <HBA>  (50) 
5

>  <TPSA>  (50) 
85.17

>  <Label>  (50) 
CAMK2A

$$$$
CHEMBL1421720
     RDKit          2D

 18 20  0  0  0  0  0  0  0  0999 V2000
   -2.5981   -5.1073    0.0000 O   0  0  0  0  0  0  0  0  0  0  0  0
   -1.2990   -5.8573    0.0000 C   0  0  0  0  0  0  0  0  0  0  0  0
   -1.2990   -7.3573    0.0000 C   0  0  0  0  0  0  0  0  0  0  0  0
   -2.5981   -8.1073    0.0000 C   0  0  0  0  0  0  0  0  0  0  0  0
   -2.7549   -9.5991    0.0000 C   0  0  0  0  0  0  0  0  0  0  0  0
   -4.2221   -9.9110    0.0000 C   0  0  0  0  0  0  0  0  0  0  0  0
   -4.9721   -8.6119    0.0000 C   0  0  0  0  0  0  0  0  0  0  0  0
   -3.9684   -7.4972    0.0000 S   0  0  0  0  0  0  0  0  0  0  0  0
   -0.0000   -5.1073    0.0000 N   0  0  0  0  0  0  0  0  0  0  0  0
   -0.0000   -3.6073    0.0000 C   0  0  0  0  0  0  0  0  0  0  0  0
    1.2135   -2.7256    0.0000 N   0  0  0  0  0  0  0  0  0  0  0  0
    0.7500   -1.2990    0.0000 C   0  0  0  0  0  0  0  0  0  0  0  0
    1.5000    0.0000    0.0000 C   0  0  0  0  0  0  0  0  0  0  0  0
    0.7500    1.2990    0.0000 C   0  0  0  0  0  0  0  0  0  0  0  0
   -0.7500    1.2990    0.0000 C   0  0  0  0  0  0  0  0  0  0  0  0
   -1.5000    0.0000    0.0000 C   0  0  0  0  0  0  0  0  0  0  0  0
   -0.7500   -1.2990    0.0000 C   0  0  0  0  0  0  0  0  0  0  0  0
   -1.2135   -2.7256    0.0000 S   0  0  0  0  0  0  0  0  0  0  0  0
  1  2  2  0
  2  3  1  0
  3  4  1  0
  4  5  2  0
  5  6  1  0
  6  7  2  0
  7  8  1  0
  2  9  1  0
  9 10  1  0
 10 11  2  0
 11 12  1  0
 12 13  2  0
 13 14  1  0
 14 15  2  0
 15 16  1  0
 16 17  2  0
 17 18  1  0
  8  4  1  0
 18 10  1  0
 17 12  1  0
M  END
>  <activity_comment>  (51) 
active

>  <activity_id>  (51) 
9515394

>  <activity_properties>  (51) 
[]

>  <assay_chembl_id>  (51) 
CHEMBL1964111

>  <assay_description>  (51) 
PUBCHEM_BIOASSAY: Navigating the Kinome. (Class of assay: other) Panel member name: CAMK2A

>  <assay_type>  (51) 
F

>  <bao_endpoint>  (51) 
BAO_0000192

>  <bao_format>  (51) 
BAO_0000019

>  <bao_label>  (51) 
assay format

>  <canonical_smiles>  (51) 
O=C(Cc1cccs1)Nc2nc3ccccc3s2

>  <data_validity_comment>  (51) 
nan

>  <data_validity_description>  (51) 
nan

>  <document_chembl_id>  (51) 
CHEMBL1201862

>  <document_journal>  (51) 
nan

>  <document_year>  (51) 
nan

>  <ligand_efficiency>  (51) 
nan

>  <molecule_pref_name>  (51) 
nan

>  <parent_molecule_chembl_id>  (51) 
CHEMBL1421720

>  <pchembl_value>  (51) 
5.5

>  <potential_duplicate>  (51) 
False

>  <qudt_units>  (51) 
http://www.openphacts.org/units/Nanomolar

>  <record_id>  (51) 
1584586

>  <relation>  (51) 
=

>  <src_id>  (51) 
7

>  <standard_flag>  (51) 
True

>  <standard_relation>  (51) 
=

>  <standard_text_value>  (51) 
nan

>  <standard_type>  (51) 
Ki

>  <standard_units>  (51) 
nM

>  <standard_upper_value>  (51) 
nan

>  <standard_value>  (51) 
3162.28

>  <target_chembl_id>  (51) 
CHEMBL4147

>  <target_organism>  (51) 
Homo sapiens

>  <target_pref_name>  (51) 
CaM kinase II alpha

>  <target_tax_id>  (51) 
9606

>  <text_value>  (51) 
nan

>  <toid>  (51) 
nan

>  <type>  (51) 
pKi

>  <units>  (51) 
nan

>  <uo_units>  (51) 
UO_0000065

>  <upper_value>  (51) 
nan

>  <value>  (51) 
5.5

>  <SMILES>  (51) 
O=C(Cc1cccs1)Nc2nc3ccccc3s2

>  <NAME>  (51) 
CHEMBL1421720

>  <FILTER>  (51) 
OK

>  <MW>  (51) 
274.37

>  <LogP>  (51) 
3.539

>  <HBD>  (51) 
1

>  <HBA>  (51) 
4

>  <TPSA>  (51) 
41.99

>  <Label>  (51) 
CAMK2A

$$$$
CHEMBL1968130
     RDKit          2D

 11 12  0  0  0  0  0  0  0  0999 V2000
   -2.6401   -3.1891    0.0000 N   0  0  0  0  0  0  0  0  0  0  0  0
   -1.2135   -2.7256    0.0000 C   0  0  0  0  0  0  0  0  0  0  0  0
   -0.0000   -3.6073    0.0000 N   0  0  0  0  0  0  0  0  0  0  0  0
    1.2135   -2.7256    0.0000 N   0  0  0  0  0  0  0  0  0  0  0  0
    0.7500   -1.2990    0.0000 C   0  0  0  0  0  0  0  0  0  0  0  0
    1.5000    0.0000    0.0000 C   0  0  0  0  0  0  0  0  0  0  0  0
    0.7500    1.2990    0.0000 N   0  0  0  0  0  0  0  0  0  0  0  0
   -0.7500    1.2990    0.0000 C   0  0  0  0  0  0  0  0  0  0  0  0
   -1.5000    0.0000    0.0000 C   0  0  0  0  0  0  0  0  0  0  0  0
   -3.0000    0.0000    0.0000 Cl  0  0  0  0  0  0  0  0  0  0  0  0
   -0.7500   -1.2990    0.0000 N   0  0  0  0  0  0  0  0  0  0  0  0
  1  2  1  0
  2  3  2  0
  3  4  1  0
  4  5  2  0
  5  6  1  0
  6  7  2  0
  7  8  1  0
  8  9  2  0
  9 10  1  0
  9 11  1  0
 11  2  1  0
 11  5  1  0
M  END
>  <activity_comment>  (52) 
active

>  <activity_id>  (52) 
9515396

>  <activity_properties>  (52) 
[]

>  <assay_chembl_id>  (52) 
CHEMBL1964111

>  <assay_description>  (52) 
PUBCHEM_BIOASSAY: Navigating the Kinome. (Class of assay: other) Panel member name: CAMK2A

>  <assay_type>  (52) 
F

>  <bao_endpoint>  (52) 
BAO_0000192

>  <bao_format>  (52) 
BAO_0000019

>  <bao_label>  (52) 
assay format

>  <canonical_smiles>  (52) 
Nc1nnc2cncc(Cl)n12

>  <data_validity_comment>  (52) 
nan

>  <data_validity_description>  (52) 
nan

>  <document_chembl_id>  (52) 
CHEMBL1201862

>  <document_journal>  (52) 
nan

>  <document_year>  (52) 
nan

>  <ligand_efficiency>  (52) 
nan

>  <molecule_pref_name>  (52) 
nan

>  <parent_molecule_chembl_id>  (52) 
CHEMBL1968130

>  <pchembl_value>  (52) 
4.7

>  <potential_duplicate>  (52) 
False

>  <qudt_units>  (52) 
http://www.openphacts.org/units/Nanomolar

>  <record_id>  (52) 
1585534

>  <relation>  (52) 
=

>  <src_id>  (52) 
7

>  <standard_flag>  (52) 
True

>  <standard_relation>  (52) 
=

>  <standard_text_value>  (52) 
nan

>  <standard_type>  (52) 
Ki

>  <standard_units>  (52) 
nM

>  <standard_upper_value>  (52) 
nan

>  <standard_value>  (52) 
19952.62

>  <target_chembl_id>  (52) 
CHEMBL4147

>  <target_organism>  (52) 
Homo sapiens

>  <target_pref_name>  (52) 
CaM kinase II alpha

>  <target_tax_id>  (52) 
9606

>  <text_value>  (52) 
nan

>  <toid>  (52) 
nan

>  <type>  (52) 
pKi

>  <units>  (52) 
nan

>  <uo_units>  (52) 
UO_0000065

>  <upper_value>  (52) 
nan

>  <value>  (52) 
4.7

>  <SMILES>  (52) 
Nc1nnc2cncc(Cl)n12

>  <NAME>  (52) 
CHEMBL1968130

>  <FILTER>  (52) 
OK

>  <MW>  (52) 
169.575

>  <LogP>  (52) 
0.3599

>  <HBD>  (52) 
1

>  <HBA>  (52) 
5

>  <TPSA>  (52) 
69.1

>  <Label>  (52) 
CAMK2A

$$$$
CHEMBL1949855
     RDKit          2D

 12 13  0  0  0  0  0  0  0  0999 V2000
    3.0000    0.0000    0.0000 Cl  0  0  0  0  0  0  0  0  0  0  0  0
    1.5000    0.0000    0.0000 C   0  0  0  0  0  0  0  0  0  0  0  0
    0.7500   -1.2990    0.0000 C   0  0  0  0  0  0  0  0  0  0  0  0
   -0.7500   -1.2990    0.0000 C   0  0  0  0  0  0  0  0  0  0  0  0
   -1.5000    0.0000    0.0000 C   0  0  0  0  0  0  0  0  0  0  0  0
   -0.7500    1.2990    0.0000 C   0  0  0  0  0  0  0  0  0  0  0  0
   -1.5000    2.5981    0.0000 C   0  0  0  0  0  0  0  0  0  0  0  0
   -3.0000    2.5981    0.0000 O   0  0  0  0  0  0  0  0  0  0  0  0
   -0.7500    3.8971    0.0000 N   0  0  0  0  0  0  0  0  0  0  0  0
    0.7500    3.8971    0.0000 C   0  0  0  0  0  0  0  0  0  0  0  0
    1.5000    2.5981    0.0000 N   0  0  0  0  0  0  0  0  0  0  0  0
    0.7500    1.2990    0.0000 C   0  0  0  0  0  0  0  0  0  0  0  0
  1  2  1  0
  2  3  2  0
  3  4  1  0
  4  5  2  0
  5  6  1  0
  6  7  1  0
  7  8  2  0
  7  9  1  0
  9 10  1  0
 10 11  2  0
 11 12  1  0
 12  2  1  0
 12  6  2  0
M  END
>  <activity_comment>  (53) 
active

>  <activity_id>  (53) 
9515402

>  <activity_properties>  (53) 
[]

>  <assay_chembl_id>  (53) 
CHEMBL1964111

>  <assay_description>  (53) 
PUBCHEM_BIOASSAY: Navigating the Kinome. (Class of assay: other) Panel member name: CAMK2A

>  <assay_type>  (53) 
F

>  <bao_endpoint>  (53) 
BAO_0000192

>  <bao_format>  (53) 
BAO_0000019

>  <bao_label>  (53) 
assay format

>  <canonical_smiles>  (53) 
Clc1cccc2C(=O)NC=Nc12

>  <data_validity_comment>  (53) 
nan

>  <data_validity_description>  (53) 
nan

>  <document_chembl_id>  (53) 
CHEMBL1201862

>  <document_journal>  (53) 
nan

>  <document_year>  (53) 
nan

>  <ligand_efficiency>  (53) 
nan

>  <molecule_pref_name>  (53) 
nan

>  <parent_molecule_chembl_id>  (53) 
CHEMBL1949855

>  <pchembl_value>  (53) 
4.8

>  <potential_duplicate>  (53) 
False

>  <qudt_units>  (53) 
http://www.openphacts.org/units/Nanomolar

>  <record_id>  (53) 
1585188

>  <relation>  (53) 
=

>  <src_id>  (53) 
7

>  <standard_flag>  (53) 
True

>  <standard_relation>  (53) 
=

>  <standard_text_value>  (53) 
nan

>  <standard_type>  (53) 
Ki

>  <standard_units>  (53) 
nM

>  <standard_upper_value>  (53) 
nan

>  <standard_value>  (53) 
15848.93

>  <target_chembl_id>  (53) 
CHEMBL4147

>  <target_organism>  (53) 
Homo sapiens

>  <target_pref_name>  (53) 
CaM kinase II alpha

>  <target_tax_id>  (53) 
9606

>  <text_value>  (53) 
nan

>  <toid>  (53) 
nan

>  <type>  (53) 
pKi

>  <units>  (53) 
nan

>  <uo_units>  (53) 
UO_0000065

>  <upper_value>  (53) 
nan

>  <value>  (53) 
4.8

>  <SMILES>  (53) 
Clc1cccc2C(=O)NC=Nc12

>  <NAME>  (53) 
CHEMBL1949855

>  <FILTER>  (53) 
OK

>  <MW>  (53) 
180.594

>  <LogP>  (53) 
1.5765

>  <HBD>  (53) 
1

>  <HBA>  (53) 
2

>  <TPSA>  (53) 
45.75

>  <Label>  (53) 
CAMK2A

$$$$
CHEMBL1990885
     RDKit          2D

 29 31  0  0  0  0  0  0  0  0999 V2000
  -12.9041   -9.3825    0.0000 C   0  0  0  0  0  0  0  0  0  0  0  0
  -11.7894   -8.3788    0.0000 C   0  0  0  0  0  0  0  0  0  0  0  0
  -10.3628   -8.8423    0.0000 N   0  0  0  0  0  0  0  0  0  0  0  0
  -10.0510  -10.3095    0.0000 C   0  0  0  0  0  0  0  0  0  0  0  0
  -11.1657  -11.3132    0.0000 C   0  0  0  0  0  0  0  0  0  0  0  0
   -9.2481   -7.8386    0.0000 C   0  0  0  0  0  0  0  0  0  0  0  0
   -7.8215   -8.3021    0.0000 C   0  0  0  0  0  0  0  0  0  0  0  0
   -6.7068   -7.2984    0.0000 N   0  0  0  0  0  0  0  0  0  0  0  0
   -5.2802   -7.7620    0.0000 C   0  0  0  0  0  0  0  0  0  0  0  0
   -4.9684   -9.2292    0.0000 O   0  0  0  0  0  0  0  0  0  0  0  0
   -4.1655   -6.7583    0.0000 C   0  0  0  0  0  0  0  0  0  0  0  0
   -2.6983   -7.0701    0.0000 C   0  0  0  0  0  0  0  0  0  0  0  0
   -2.0882   -8.4404    0.0000 C   0  0  0  0  0  0  0  0  0  0  0  0
   -1.9483   -5.7711    0.0000 N   0  0  0  0  0  0  0  0  0  0  0  0
   -2.9520   -4.6564    0.0000 C   0  0  0  0  0  0  0  0  0  0  0  0
   -2.6401   -3.1891    0.0000 C   0  0  0  0  0  0  0  0  0  0  0  0
   -1.2135   -2.7256    0.0000 C   0  0  0  0  0  0  0  0  0  0  0  0
    0.0000   -3.6073    0.0000 C   0  0  0  0  0  0  0  0  0  0  0  0
    0.0000   -5.1073    0.0000 O   0  0  0  0  0  0  0  0  0  0  0  0
    1.2135   -2.7256    0.0000 N   0  0  0  0  0  0  0  0  0  0  0  0
    0.7500   -1.2990    0.0000 C   0  0  0  0  0  0  0  0  0  0  0  0
    1.5000    0.0000    0.0000 C   0  0  0  0  0  0  0  0  0  0  0  0
    0.7500    1.2990    0.0000 C   0  0  0  0  0  0  0  0  0  0  0  0
   -0.7500    1.2990    0.0000 C   0  0  0  0  0  0  0  0  0  0  0  0
   -1.5000    2.5981    0.0000 F   0  0  0  0  0  0  0  0  0  0  0  0
   -1.5000    0.0000    0.0000 C   0  0  0  0  0  0  0  0  0  0  0  0
   -0.7500   -1.2990    0.0000 C   0  0  0  0  0  0  0  0  0  0  0  0
   -4.3223   -5.2665    0.0000 C   0  0  0  0  0  0  0  0  0  0  0  0
   -5.6213   -4.5165    0.0000 C   0  0  0  0  0  0  0  0  0  0  0  0
  1  2  1  0
  2  3  1  0
  3  4  1  0
  4  5  1  0
  3  6  1  0
  6  7  1  0
  7  8  1  0
  8  9  1  0
  9 10  2  0
  9 11  1  0
 11 12  2  0
 12 13  1  0
 12 14  1  0
 14 15  1  0
 15 16  1  0
 16 17  2  3
 17 18  1  0
 18 19  2  0
 18 20  1  0
 20 21  1  0
 21 22  2  0
 22 23  1  0
 23 24  2  0
 24 25  1  0
 24 26  1  0
 26 27  2  0
 15 28  2  0
 28 29  1  0
 28 11  1  0
 27 17  1  0
 27 21  1  0
M  END
>  <activity_comment>  (54) 
active

>  <activity_id>  (54) 
9515403

>  <activity_properties>  (54) 
[]

>  <assay_chembl_id>  (54) 
CHEMBL1964111

>  <assay_description>  (54) 
PUBCHEM_BIOASSAY: Navigating the Kinome. (Class of assay: other) Panel member name: CAMK2A

>  <assay_type>  (54) 
F

>  <bao_endpoint>  (54) 
BAO_0000192

>  <bao_format>  (54) 
BAO_0000019

>  <bao_label>  (54) 
assay format

>  <canonical_smiles>  (54) 
CCN(CC)CCNC(=O)c1c(C)[nH]c(C=C2C(=O)Nc3ccc(F)cc23)c1C

>  <data_validity_comment>  (54) 
nan

>  <data_validity_description>  (54) 
nan

>  <document_chembl_id>  (54) 
CHEMBL1201862

>  <document_journal>  (54) 
nan

>  <document_year>  (54) 
nan

>  <ligand_efficiency>  (54) 
nan

>  <molecule_pref_name>  (54) 
nan

>  <parent_molecule_chembl_id>  (54) 
CHEMBL1990885

>  <pchembl_value>  (54) 
6.8

>  <potential_duplicate>  (54) 
False

>  <qudt_units>  (54) 
http://www.openphacts.org/units/Nanomolar

>  <record_id>  (54) 
1585552

>  <relation>  (54) 
=

>  <src_id>  (54) 
7

>  <standard_flag>  (54) 
True

>  <standard_relation>  (54) 
=

>  <standard_text_value>  (54) 
nan

>  <standard_type>  (54) 
Ki

>  <standard_units>  (54) 
nM

>  <standard_upper_value>  (54) 
nan

>  <standard_value>  (54) 
158.49

>  <target_chembl_id>  (54) 
CHEMBL4147

>  <target_organism>  (54) 
Homo sapiens

>  <target_pref_name>  (54) 
CaM kinase II alpha

>  <target_tax_id>  (54) 
9606

>  <text_value>  (54) 
nan

>  <toid>  (54) 
nan

>  <type>  (54) 
pKi

>  <units>  (54) 
nan

>  <uo_units>  (54) 
UO_0000065

>  <upper_value>  (54) 
nan

>  <value>  (54) 
6.8

>  <SMILES>  (54) 
CCN(CC)CCNC(=O)c1c(C)[nH]c(C=C2C(=O)Nc3ccc(F)cc23)c1C

>  <NAME>  (54) 
CHEMBL1990885

>  <FILTER>  (54) 
OK

>  <MW>  (54) 
398.482

>  <LogP>  (54) 
3.33494

>  <HBD>  (54) 
3

>  <HBA>  (54) 
3

>  <TPSA>  (54) 
77.23

>  <Label>  (54) 
CAMK2A

$$$$
CHEMBL1940137
     RDKit          2D

 25 28  0  0  0  0  0  0  0  0999 V2000
    3.0000    0.0000    0.0000 Cl  0  0  0  0  0  0  0  0  0  0  0  0
    1.5000    0.0000    0.0000 C   0  0  0  0  0  0  0  0  0  0  0  0
    0.7500   -1.2990    0.0000 C   0  0  0  0  0  0  0  0  0  0  0  0
   -0.7500   -1.2990    0.0000 C   0  0  0  0  0  0  0  0  0  0  0  0
   -1.5000    0.0000    0.0000 C   0  0  0  0  0  0  0  0  0  0  0  0
   -0.7500    1.2990    0.0000 C   0  0  0  0  0  0  0  0  0  0  0  0
   -1.5000    2.5981    0.0000 N   0  0  0  0  0  0  0  0  0  0  0  0
   -0.7500    3.8971    0.0000 C   0  0  0  0  0  0  0  0  0  0  0  0
    0.7500    3.8971    0.0000 N   0  0  0  0  0  0  0  0  0  0  0  0
    1.5000    5.1962    0.0000 C   0  0  0  0  0  0  0  0  0  0  0  0
    0.7500    6.4952    0.0000 N   0  0  0  0  0  0  0  0  0  0  0  0
   -0.7500    6.4952    0.0000 C   0  0  0  0  0  0  0  0  0  0  0  0
   -1.5000    5.1962    0.0000 N   0  0  0  0  0  0  0  0  0  0  0  0
   -1.5000    7.7942    0.0000 N   0  0  0  0  0  0  0  0  0  0  0  0
   -2.9918    7.9510    0.0000 C   0  0  0  0  0  0  0  0  0  0  0  0
   -3.3037    9.4182    0.0000 C   0  0  0  0  0  0  0  0  0  0  0  0
   -2.0046   10.1682    0.0000 C   0  0  0  0  0  0  0  0  0  0  0  0
   -0.8899    9.1645    0.0000 N   0  0  0  0  0  0  0  0  0  0  0  0
    3.0000    5.1962    0.0000 N   0  0  0  0  0  0  0  0  0  0  0  0
    3.7500    3.8971    0.0000 C   0  0  0  0  0  0  0  0  0  0  0  0
    5.2500    3.8971    0.0000 C   0  0  0  0  0  0  0  0  0  0  0  0
    6.0000    5.1962    0.0000 O   0  0  0  0  0  0  0  0  0  0  0  0
    5.2500    6.4952    0.0000 C   0  0  0  0  0  0  0  0  0  0  0  0
    3.7500    6.4952    0.0000 C   0  0  0  0  0  0  0  0  0  0  0  0
    0.7500    1.2990    0.0000 C   0  0  0  0  0  0  0  0  0  0  0  0
  1  2  1  0
  2  3  2  0
  3  4  1  0
  4  5  2  0
  5  6  1  0
  6  7  1  0
  7  8  1  0
  8  9  2  0
  9 10  1  0
 10 11  2  0
 11 12  1  0
 12 13  2  0
 12 14  1  0
 14 15  1  0
 15 16  2  0
 16 17  1  0
 17 18  2  0
 10 19  1  0
 19 20  1  0
 20 21  1  0
 21 22  1  0
 22 23  1  0
 23 24  1  0
  6 25  2  0
 25  2  1  0
 13  8  1  0
 18 14  1  0
 24 19  1  0
M  END
>  <activity_comment>  (55) 
active

>  <activity_id>  (55) 
9515408

>  <activity_properties>  (55) 
[]

>  <assay_chembl_id>  (55) 
CHEMBL1964111

>  <assay_description>  (55) 
PUBCHEM_BIOASSAY: Navigating the Kinome. (Class of assay: other) Panel member name: CAMK2A

>  <assay_type>  (55) 
F

>  <bao_endpoint>  (55) 
BAO_0000192

>  <bao_format>  (55) 
BAO_0000019

>  <bao_label>  (55) 
assay format

>  <canonical_smiles>  (55) 
Clc1cccc(Nc2nc(nc(n2)n3cccn3)N4CCOCC4)c1

>  <data_validity_comment>  (55) 
nan

>  <data_validity_description>  (55) 
nan

>  <document_chembl_id>  (55) 
CHEMBL1201862

>  <document_journal>  (55) 
nan

>  <document_year>  (55) 
nan

>  <ligand_efficiency>  (55) 
nan

>  <molecule_pref_name>  (55) 
nan

>  <parent_molecule_chembl_id>  (55) 
CHEMBL1940137

>  <pchembl_value>  (55) 
5.6

>  <potential_duplicate>  (55) 
False

>  <qudt_units>  (55) 
http://www.openphacts.org/units/Nanomolar

>  <record_id>  (55) 
1585528

>  <relation>  (55) 
=

>  <src_id>  (55) 
7

>  <standard_flag>  (55) 
True

>  <standard_relation>  (55) 
=

>  <standard_text_value>  (55) 
nan

>  <standard_type>  (55) 
Ki

>  <standard_units>  (55) 
nM

>  <standard_upper_value>  (55) 
nan

>  <standard_value>  (55) 
2511.89

>  <target_chembl_id>  (55) 
CHEMBL4147

>  <target_organism>  (55) 
Homo sapiens

>  <target_pref_name>  (55) 
CaM kinase II alpha

>  <target_tax_id>  (55) 
9606

>  <text_value>  (55) 
nan

>  <toid>  (55) 
nan

>  <type>  (55) 
pKi

>  <units>  (55) 
nan

>  <uo_units>  (55) 
UO_0000065

>  <upper_value>  (55) 
nan

>  <value>  (55) 
5.6

>  <SMILES>  (55) 
Clc1cccc(Nc2nc(nc(n2)n3cccn3)N4CCOCC4)c1

>  <NAME>  (55) 
CHEMBL1940137

>  <FILTER>  (55) 
OK

>  <MW>  (55) 
357.805

>  <LogP>  (55) 
2.2909

>  <HBD>  (55) 
1

>  <HBA>  (55) 
8

>  <TPSA>  (55) 
80.99

>  <Label>  (55) 
CAMK2A

$$$$
CHEMBL1973359
     RDKit          2D

 20 22  0  0  0  0  0  0  0  0999 V2000
    3.7500   -1.2990    0.0000 N   0  0  0  0  0  0  0  0  0  0  0  0
    3.0000    0.0000    0.0000 C   0  0  0  0  0  0  0  0  0  0  0  0
    3.7500    1.2990    0.0000 O   0  0  0  0  0  0  0  0  0  0  0  0
    1.5000    0.0000    0.0000 C   0  0  0  0  0  0  0  0  0  0  0  0
    0.7500   -1.2990    0.0000 C   0  0  0  0  0  0  0  0  0  0  0  0
   -0.7500   -1.2990    0.0000 C   0  0  0  0  0  0  0  0  0  0  0  0
   -1.5000    0.0000    0.0000 C   0  0  0  0  0  0  0  0  0  0  0  0
   -2.9672    0.3119    0.0000 N   0  0  0  0  0  0  0  0  0  0  0  0
   -3.1240    1.8037    0.0000 C   0  0  0  0  0  0  0  0  0  0  0  0
   -1.7537    2.4138    0.0000 C   0  0  0  0  0  0  0  0  0  0  0  0
   -0.7500    1.2990    0.0000 N   0  0  0  0  0  0  0  0  0  0  0  0
    0.7500    1.2990    0.0000 C   0  0  0  0  0  0  0  0  0  0  0  0
   -4.4231    2.5537    0.0000 C   0  0  0  0  0  0  0  0  0  0  0  0
   -5.7934    1.9435    0.0000 O   0  0  0  0  0  0  0  0  0  0  0  0
   -6.7971    3.0583    0.0000 C   0  0  0  0  0  0  0  0  0  0  0  0
   -6.0471    4.3573    0.0000 C   0  0  0  0  0  0  0  0  0  0  0  0
   -4.5798    4.0454    0.0000 C   0  0  0  0  0  0  0  0  0  0  0  0
   -8.2888    2.9015    0.0000 N   0  0  0  0  0  0  0  0  0  0  0  0
   -8.8990    1.5312    0.0000 O   0  0  0  0  0  0  0  0  0  0  0  0
   -9.1705    4.1150    0.0000 O   0  0  0  0  0  0  0  0  0  0  0  0
  1  2  1  0
  2  3  2  0
  2  4  1  0
  4  5  1  0
  5  6  2  0
  6  7  1  0
  7  8  2  0
  8  9  1  0
  9 10  2  0
 10 11  1  0
 11 12  1  0
  9 13  1  0
 13 14  1  0
 14 15  1  0
 15 16  2  0
 16 17  1  0
 15 18  1  0
 18 19  2  0
 18 20  1  0
 12  4  2  0
 11  7  1  0
 17 13  2  0
M  CHG  2  18   1  20  -1
M  END
>  <activity_comment>  (56) 
active

>  <activity_id>  (56) 
9515411

>  <activity_properties>  (56) 
[]

>  <assay_chembl_id>  (56) 
CHEMBL1964111

>  <assay_description>  (56) 
PUBCHEM_BIOASSAY: Navigating the Kinome. (Class of assay: other) Panel member name: CAMK2A

>  <assay_type>  (56) 
F

>  <bao_endpoint>  (56) 
BAO_0000192

>  <bao_format>  (56) 
BAO_0000019

>  <bao_label>  (56) 
assay format

>  <canonical_smiles>  (56) 
NC(=O)c1ccc2nc(cn2c1)c3oc(cc3)[N+](=O)[O-]

>  <data_validity_comment>  (56) 
nan

>  <data_validity_description>  (56) 
nan

>  <document_chembl_id>  (56) 
CHEMBL1201862

>  <document_journal>  (56) 
nan

>  <document_year>  (56) 
nan

>  <ligand_efficiency>  (56) 
nan

>  <molecule_pref_name>  (56) 
nan

>  <parent_molecule_chembl_id>  (56) 
CHEMBL1973359

>  <pchembl_value>  (56) 
6.7

>  <potential_duplicate>  (56) 
False

>  <qudt_units>  (56) 
http://www.openphacts.org/units/Nanomolar

>  <record_id>  (56) 
1585550

>  <relation>  (56) 
=

>  <src_id>  (56) 
7

>  <standard_flag>  (56) 
True

>  <standard_relation>  (56) 
=

>  <standard_text_value>  (56) 
nan

>  <standard_type>  (56) 
Ki

>  <standard_units>  (56) 
nM

>  <standard_upper_value>  (56) 
nan

>  <standard_value>  (56) 
199.53

>  <target_chembl_id>  (56) 
CHEMBL4147

>  <target_organism>  (56) 
Homo sapiens

>  <target_pref_name>  (56) 
CaM kinase II alpha

>  <target_tax_id>  (56) 
9606

>  <text_value>  (56) 
nan

>  <toid>  (56) 
nan

>  <type>  (56) 
pKi

>  <units>  (56) 
nan

>  <uo_units>  (56) 
UO_0000065

>  <upper_value>  (56) 
nan

>  <value>  (56) 
6.7

>  <SMILES>  (56) 
NC(=O)c1ccc2nc(cn2c1)c3oc(cc3)[N+](=O)[O-]

>  <NAME>  (56) 
CHEMBL1973359

>  <FILTER>  (56) 
OK

>  <MW>  (56) 
272.22

>  <LogP>  (56) 
1.6014

>  <HBD>  (56) 
1

>  <HBA>  (56) 
6

>  <TPSA>  (56) 
116.67

>  <Label>  (56) 
CAMK2A

$$$$
CHEMBL1988581
     RDKit          2D

 17 18  0  0  0  0  0  0  0  0999 V2000
    5.2500   -1.2990    0.0000 C   0  0  0  0  0  0  0  0  0  0  0  0
    3.7500   -1.2990    0.0000 N   0  0  0  0  0  0  0  0  0  0  0  0
    3.0000   -2.5981    0.0000 C   0  0  0  0  0  0  0  0  0  0  0  0
    3.0000    0.0000    0.0000 C   0  0  0  0  0  0  0  0  0  0  0  0
    1.5000    0.0000    0.0000 C   0  0  0  0  0  0  0  0  0  0  0  0
    0.7500   -1.2990    0.0000 C   0  0  0  0  0  0  0  0  0  0  0  0
    1.5000   -2.5981    0.0000 O   0  0  0  0  0  0  0  0  0  0  0  0
   -0.7500   -1.2990    0.0000 C   0  0  0  0  0  0  0  0  0  0  0  0
   -1.5000   -2.5981    0.0000 N   0  0  0  0  0  0  0  0  0  0  0  0
   -3.0000   -2.5981    0.0000 C   0  0  0  0  0  0  0  0  0  0  0  0
   -3.7500   -1.2990    0.0000 C   0  0  0  0  0  0  0  0  0  0  0  0
   -3.0000    0.0000    0.0000 C   0  0  0  0  0  0  0  0  0  0  0  0
   -3.7500    1.2990    0.0000 O   0  0  0  0  0  0  0  0  0  0  0  0
   -1.5000    0.0000    0.0000 N   0  0  0  0  0  0  0  0  0  0  0  0
   -0.7500    1.2990    0.0000 C   0  0  0  0  0  0  0  0  0  0  0  0
    0.7500    1.2990    0.0000 C   0  0  0  0  0  0  0  0  0  0  0  0
   -3.7500   -3.8971    0.0000 C   0  0  0  0  0  0  0  0  0  0  0  0
  1  2  1  0
  2  3  1  0
  2  4  1  0
  4  5  1  0
  5  6  2  0
  6  7  1  0
  6  8  1  0
  8  9  2  0
  9 10  1  0
 10 11  2  0
 11 12  1  0
 12 13  2  0
 12 14  1  0
 14 15  1  0
 15 16  2  0
 10 17  1  0
 16  5  1  0
 14  8  1  0
M  END
>  <activity_comment>  (57) 
active

>  <activity_id>  (57) 
9515412

>  <activity_properties>  (57) 
[]

>  <assay_chembl_id>  (57) 
CHEMBL1964111

>  <assay_description>  (57) 
PUBCHEM_BIOASSAY: Navigating the Kinome. (Class of assay: other) Panel member name: CAMK2A

>  <assay_type>  (57) 
F

>  <bao_endpoint>  (57) 
BAO_0000192

>  <bao_format>  (57) 
BAO_0000019

>  <bao_label>  (57) 
assay format

>  <canonical_smiles>  (57) 
CN(C)CC1=C(O)C2=NC(=CC(=O)N2C=C1)C

>  <data_validity_comment>  (57) 
nan

>  <data_validity_description>  (57) 
nan

>  <document_chembl_id>  (57) 
CHEMBL1201862

>  <document_journal>  (57) 
nan

>  <document_year>  (57) 
nan

>  <ligand_efficiency>  (57) 
nan

>  <molecule_pref_name>  (57) 
nan

>  <parent_molecule_chembl_id>  (57) 
CHEMBL1988581

>  <pchembl_value>  (57) 
7.4

>  <potential_duplicate>  (57) 
False

>  <qudt_units>  (57) 
http://www.openphacts.org/units/Nanomolar

>  <record_id>  (57) 
1585521

>  <relation>  (57) 
=

>  <src_id>  (57) 
7

>  <standard_flag>  (57) 
True

>  <standard_relation>  (57) 
=

>  <standard_text_value>  (57) 
nan

>  <standard_type>  (57) 
Ki

>  <standard_units>  (57) 
nM

>  <standard_upper_value>  (57) 
nan

>  <standard_value>  (57) 
39.81

>  <target_chembl_id>  (57) 
CHEMBL4147

>  <target_organism>  (57) 
Homo sapiens

>  <target_pref_name>  (57) 
CaM kinase II alpha

>  <target_tax_id>  (57) 
9606

>  <text_value>  (57) 
nan

>  <toid>  (57) 
nan

>  <type>  (57) 
pKi

>  <units>  (57) 
nan

>  <uo_units>  (57) 
UO_0000065

>  <upper_value>  (57) 
nan

>  <value>  (57) 
7.4

>  <SMILES>  (57) 
CN(C)CC1=C(O)C2=NC(=CC(=O)N2C=C1)C

>  <NAME>  (57) 
CHEMBL1988581

>  <FILTER>  (57) 
OK

>  <MW>  (57) 
233.271

>  <LogP>  (57) 
0.77012

>  <HBD>  (57) 
1

>  <HBA>  (57) 
5

>  <TPSA>  (57) 
57.84

>  <Label>  (57) 
CAMK2A

$$$$
CHEMBL1983575
     RDKit          2D

 21 22  0  0  0  0  0  0  0  0999 V2000
    3.0000    0.0000    0.0000 O   0  0  0  0  0  0  0  0  0  0  0  0
    1.5000    0.0000    0.0000 C   0  0  0  0  0  0  0  0  0  0  0  0
    0.7500   -1.2990    0.0000 C   0  0  0  0  0  0  0  0  0  0  0  0
    1.5000   -2.5981    0.0000 Br  0  0  0  0  0  0  0  0  0  0  0  0
   -0.7500   -1.2990    0.0000 C   0  0  0  0  0  0  0  0  0  0  0  0
   -1.5000    0.0000    0.0000 C   0  0  0  0  0  0  0  0  0  0  0  0
   -3.0000    0.0000    0.0000 C   0  0  0  0  0  0  0  0  0  0  0  0
   -3.7500    1.2990    0.0000 N   0  0  0  0  0  0  0  0  0  0  0  0
   -5.2500    1.2990    0.0000 N   0  0  0  0  0  0  0  0  0  0  0  0
   -6.0000    2.5981    0.0000 C   0  0  0  0  0  0  0  0  0  0  0  0
   -5.2500    3.8971    0.0000 O   0  0  0  0  0  0  0  0  0  0  0  0
   -7.5000    2.5981    0.0000 N   0  0  0  0  0  0  0  0  0  0  0  0
   -8.2500    3.8971    0.0000 C   0  0  0  0  0  0  0  0  0  0  0  0
   -7.5000    5.1962    0.0000 C   0  0  0  0  0  0  0  0  0  0  0  0
   -8.2500    6.4952    0.0000 C   0  0  0  0  0  0  0  0  0  0  0  0
   -9.7500    6.4952    0.0000 C   0  0  0  0  0  0  0  0  0  0  0  0
  -10.5000    5.1962    0.0000 C   0  0  0  0  0  0  0  0  0  0  0  0
   -9.7500    3.8971    0.0000 C   0  0  0  0  0  0  0  0  0  0  0  0
   -0.7500    1.2990    0.0000 C   0  0  0  0  0  0  0  0  0  0  0  0
    0.7500    1.2990    0.0000 C   0  0  0  0  0  0  0  0  0  0  0  0
    1.5000    2.5981    0.0000 Br  0  0  0  0  0  0  0  0  0  0  0  0
  1  2  1  0
  2  3  2  0
  3  4  1  0
  3  5  1  0
  5  6  2  0
  6  7  1  0
  7  8  2  3
  8  9  1  0
  9 10  1  0
 10 11  2  0
 10 12  1  0
 12 13  1  0
 13 14  2  0
 14 15  1  0
 15 16  2  0
 16 17  1  0
 17 18  2  0
  6 19  1  0
 19 20  2  0
 20 21  1  0
 20  2  1  0
 18 13  1  0
M  END
>  <activity_comment>  (58) 
active

>  <activity_id>  (58) 
9515424

>  <activity_properties>  (58) 
[]

>  <assay_chembl_id>  (58) 
CHEMBL1964111

>  <assay_description>  (58) 
PUBCHEM_BIOASSAY: Navigating the Kinome. (Class of assay: other) Panel member name: CAMK2A

>  <assay_type>  (58) 
F

>  <bao_endpoint>  (58) 
BAO_0000192

>  <bao_format>  (58) 
BAO_0000019

>  <bao_label>  (58) 
assay format

>  <canonical_smiles>  (58) 
Oc1c(Br)cc(C=NNC(=O)Nc2ccccc2)cc1Br

>  <data_validity_comment>  (58) 
nan

>  <data_validity_description>  (58) 
nan

>  <document_chembl_id>  (58) 
CHEMBL1201862

>  <document_journal>  (58) 
nan

>  <document_year>  (58) 
nan

>  <ligand_efficiency>  (58) 
nan

>  <molecule_pref_name>  (58) 
nan

>  <parent_molecule_chembl_id>  (58) 
CHEMBL1983575

>  <pchembl_value>  (58) 
5.8

>  <potential_duplicate>  (58) 
False

>  <qudt_units>  (58) 
http://www.openphacts.org/units/Nanomolar

>  <record_id>  (58) 
1584323

>  <relation>  (58) 
=

>  <src_id>  (58) 
7

>  <standard_flag>  (58) 
True

>  <standard_relation>  (58) 
=

>  <standard_text_value>  (58) 
nan

>  <standard_type>  (58) 
Ki

>  <standard_units>  (58) 
nM

>  <standard_upper_value>  (58) 
nan

>  <standard_value>  (58) 
1584.89

>  <target_chembl_id>  (58) 
CHEMBL4147

>  <target_organism>  (58) 
Homo sapiens

>  <target_pref_name>  (58) 
CaM kinase II alpha

>  <target_tax_id>  (58) 
9606

>  <text_value>  (58) 
nan

>  <toid>  (58) 
nan

>  <type>  (58) 
pKi

>  <units>  (58) 
nan

>  <uo_units>  (58) 
UO_0000065

>  <upper_value>  (58) 
nan

>  <value>  (58) 
5.8

>  <SMILES>  (58) 
Oc1c(Br)cc(C=NNC(=O)Nc2ccccc2)cc1Br

>  <NAME>  (58) 
CHEMBL1983575

>  <FILTER>  (58) 
OK

>  <MW>  (58) 
413.069

>  <LogP>  (58) 
4.0728

>  <HBD>  (58) 
3

>  <HBA>  (58) 
3

>  <TPSA>  (58) 
73.72

>  <Label>  (58) 
CAMK2A

$$$$
CHEMBL1975903
     RDKit          2D

 25 27  0  0  0  0  0  0  0  0999 V2000
    3.7500   -1.2990    0.0000 C   0  0  0  0  0  0  0  0  0  0  0  0
    3.0000    0.0000    0.0000 O   0  0  0  0  0  0  0  0  0  0  0  0
    1.5000    0.0000    0.0000 C   0  0  0  0  0  0  0  0  0  0  0  0
    0.7500   -1.2990    0.0000 C   0  0  0  0  0  0  0  0  0  0  0  0
   -0.7500   -1.2990    0.0000 C   0  0  0  0  0  0  0  0  0  0  0  0
   -1.5000    0.0000    0.0000 C   0  0  0  0  0  0  0  0  0  0  0  0
   -0.7500    1.2990    0.0000 C   0  0  0  0  0  0  0  0  0  0  0  0
    0.7500    1.2990    0.0000 C   0  0  0  0  0  0  0  0  0  0  0  0
    1.5000    2.5981    0.0000 C   0  0  0  0  0  0  0  0  0  0  0  0
    3.0000    2.5981    0.0000 C   0  0  0  0  0  0  0  0  0  0  0  0
    3.7500    3.8971    0.0000 C   0  0  0  0  0  0  0  0  0  0  0  0
    3.0000    5.1962    0.0000 N   0  0  0  0  0  0  0  0  0  0  0  0
    1.5000    5.1962    0.0000 C   0  0  0  0  0  0  0  0  0  0  0  0
    0.7500    6.4952    0.0000 N   0  0  0  0  0  0  0  0  0  0  0  0
    1.5000    7.7942    0.0000 C   0  0  0  0  0  0  0  0  0  0  0  0
    3.0000    7.7942    0.0000 C   0  0  0  0  0  0  0  0  0  0  0  0
    3.7500    9.0933    0.0000 C   0  0  0  0  0  0  0  0  0  0  0  0
    3.0000   10.3923    0.0000 C   0  0  0  0  0  0  0  0  0  0  0  0
    1.5000   10.3923    0.0000 C   0  0  0  0  0  0  0  0  0  0  0  0
    0.7500    9.0933    0.0000 C   0  0  0  0  0  0  0  0  0  0  0  0
    0.7500   11.6913    0.0000 S   0  0  0  0  0  0  0  0  0  0  0  0
   -0.5490   10.9413    0.0000 O   0  0  0  0  0  0  0  0  0  0  0  0
    2.0490   12.4413    0.0000 O   0  0  0  0  0  0  0  0  0  0  0  0
   -0.0000   12.9904    0.0000 C   0  0  0  0  0  0  0  0  0  0  0  0
    0.7500    3.8971    0.0000 N   0  0  0  0  0  0  0  0  0  0  0  0
  1  2  1  0
  2  3  1  0
  3  4  2  0
  4  5  1  0
  5  6  2  0
  6  7  1  0
  7  8  2  0
  8  9  1  0
  9 10  2  0
 10 11  1  0
 11 12  2  0
 12 13  1  0
 13 14  1  0
 14 15  1  0
 15 16  2  0
 16 17  1  0
 17 18  2  0
 18 19  1  0
 19 20  2  0
 19 21  1  0
 21 22  2  0
 21 23  2  0
 21 24  1  0
 13 25  2  0
  8  3  1  0
 25  9  1  0
 20 15  1  0
M  END
>  <activity_comment>  (59) 
active

>  <activity_id>  (59) 
9515433

>  <activity_properties>  (59) 
[]

>  <assay_chembl_id>  (59) 
CHEMBL1964111

>  <assay_description>  (59) 
PUBCHEM_BIOASSAY: Navigating the Kinome. (Class of assay: other) Panel member name: CAMK2A

>  <assay_type>  (59) 
F

>  <bao_endpoint>  (59) 
BAO_0000192

>  <bao_format>  (59) 
BAO_0000019

>  <bao_label>  (59) 
assay format

>  <canonical_smiles>  (59) 
COc1ccccc1c2ccnc(Nc3cccc(c3)S(=O)(=O)C)n2

>  <data_validity_comment>  (59) 
nan

>  <data_validity_description>  (59) 
nan

>  <document_chembl_id>  (59) 
CHEMBL1201862

>  <document_journal>  (59) 
nan

>  <document_year>  (59) 
nan

>  <ligand_efficiency>  (59) 
nan

>  <molecule_pref_name>  (59) 
nan

>  <parent_molecule_chembl_id>  (59) 
CHEMBL1975903

>  <pchembl_value>  (59) 
6.0

>  <potential_duplicate>  (59) 
False

>  <qudt_units>  (59) 
http://www.openphacts.org/units/Nanomolar

>  <record_id>  (59) 
1584683

>  <relation>  (59) 
=

>  <src_id>  (59) 
7

>  <standard_flag>  (59) 
True

>  <standard_relation>  (59) 
=

>  <standard_text_value>  (59) 
nan

>  <standard_type>  (59) 
Ki

>  <standard_units>  (59) 
nM

>  <standard_upper_value>  (59) 
nan

>  <standard_value>  (59) 
1000.0

>  <target_chembl_id>  (59) 
CHEMBL4147

>  <target_organism>  (59) 
Homo sapiens

>  <target_pref_name>  (59) 
CaM kinase II alpha

>  <target_tax_id>  (59) 
9606

>  <text_value>  (59) 
nan

>  <toid>  (59) 
nan

>  <type>  (59) 
pKi

>  <units>  (59) 
nan

>  <uo_units>  (59) 
UO_0000065

>  <upper_value>  (59) 
nan

>  <value>  (59) 
6.0

>  <SMILES>  (59) 
COc1ccccc1c2ccnc(Nc3cccc(c3)S(=O)(=O)C)n2

>  <NAME>  (59) 
CHEMBL1975903

>  <FILTER>  (59) 
OK

>  <MW>  (59) 
355.419

>  <LogP>  (59) 
3.2993

>  <HBD>  (59) 
1

>  <HBA>  (59) 
6

>  <TPSA>  (59) 
81.18

>  <Label>  (59) 
CAMK2A

$$$$
CHEMBL482967
     RDKit          2D

 26 29  0  0  0  0  0  0  0  0999 V2000
   -0.5773   -4.2803    0.0000 C   0  0  0  0  0  0  0  0  0  0  0  0
    0.8899   -3.9684    0.0000 C   0  0  0  0  0  0  0  0  0  0  0  0
    2.0046   -4.9721    0.0000 N   0  0  0  0  0  0  0  0  0  0  0  0
    3.3037   -4.2221    0.0000 C   0  0  0  0  0  0  0  0  0  0  0  0
    4.6740   -4.8322    0.0000 N   0  0  0  0  0  0  0  0  0  0  0  0
    2.9918   -2.7549    0.0000 S   0  0  0  0  0  0  0  0  0  0  0  0
    1.5000   -2.5981    0.0000 C   0  0  0  0  0  0  0  0  0  0  0  0
    0.7500   -1.2990    0.0000 C   0  0  0  0  0  0  0  0  0  0  0  0
    1.5000    0.0000    0.0000 C   0  0  0  0  0  0  0  0  0  0  0  0
    0.7500    1.2990    0.0000 C   0  0  0  0  0  0  0  0  0  0  0  0
   -0.7500    1.2990    0.0000 N   0  0  0  0  0  0  0  0  0  0  0  0
   -1.5000    0.0000    0.0000 C   0  0  0  0  0  0  0  0  0  0  0  0
   -3.0000    0.0000    0.0000 N   0  0  0  0  0  0  0  0  0  0  0  0
   -3.7500    1.2990    0.0000 C   0  0  0  0  0  0  0  0  0  0  0  0
   -3.0000    2.5981    0.0000 C   0  0  0  0  0  0  0  0  0  0  0  0
   -3.7500    3.8971    0.0000 C   0  0  0  0  0  0  0  0  0  0  0  0
   -5.2500    3.8971    0.0000 C   0  0  0  0  0  0  0  0  0  0  0  0
   -6.0000    2.5981    0.0000 C   0  0  0  0  0  0  0  0  0  0  0  0
   -5.2500    1.2990    0.0000 C   0  0  0  0  0  0  0  0  0  0  0  0
   -6.0000    5.1962    0.0000 N   0  0  0  0  0  0  0  0  0  0  0  0
   -5.2500    6.4952    0.0000 C   0  0  0  0  0  0  0  0  0  0  0  0
   -6.0000    7.7942    0.0000 C   0  0  0  0  0  0  0  0  0  0  0  0
   -7.5000    7.7942    0.0000 O   0  0  0  0  0  0  0  0  0  0  0  0
   -8.2500    6.4952    0.0000 C   0  0  0  0  0  0  0  0  0  0  0  0
   -7.5000    5.1962    0.0000 C   0  0  0  0  0  0  0  0  0  0  0  0
   -0.7500   -1.2990    0.0000 N   0  0  0  0  0  0  0  0  0  0  0  0
  1  2  1  0
  2  3  1  0
  3  4  2  0
  4  5  1  0
  4  6  1  0
  6  7  1  0
  7  8  1  0
  8  9  2  0
  9 10  1  0
 10 11  2  0
 11 12  1  0
 12 13  1  0
 13 14  1  0
 14 15  2  0
 15 16  1  0
 16 17  2  0
 17 18  1  0
 18 19  2  0
 17 20  1  0
 20 21  1  0
 21 22  1  0
 22 23  1  0
 23 24  1  0
 24 25  1  0
 12 26  2  0
  7  2  2  0
 26  8  1  0
 19 14  1  0
 25 20  1  0
M  END
>  <activity_comment>  (60) 
active

>  <activity_id>  (60) 
9515434

>  <activity_properties>  (60) 
[]

>  <assay_chembl_id>  (60) 
CHEMBL1964111

>  <assay_description>  (60) 
PUBCHEM_BIOASSAY: Navigating the Kinome. (Class of assay: other) Panel member name: CAMK2A

>  <assay_type>  (60) 
F

>  <bao_endpoint>  (60) 
BAO_0000192

>  <bao_format>  (60) 
BAO_0000019

>  <bao_label>  (60) 
assay format

>  <canonical_smiles>  (60) 
Cc1nc(N)sc1c2ccnc(Nc3ccc(cc3)N4CCOCC4)n2

>  <data_validity_comment>  (60) 
nan

>  <data_validity_description>  (60) 
nan

>  <document_chembl_id>  (60) 
CHEMBL1201862

>  <document_journal>  (60) 
nan

>  <document_year>  (60) 
nan

>  <ligand_efficiency>  (60) 
nan

>  <molecule_pref_name>  (60) 
CYC-116

>  <parent_molecule_chembl_id>  (60) 
CHEMBL482967

>  <pchembl_value>  (60) 
5.3

>  <potential_duplicate>  (60) 
False

>  <qudt_units>  (60) 
http://www.openphacts.org/units/Nanomolar

>  <record_id>  (60) 
1584285

>  <relation>  (60) 
=

>  <src_id>  (60) 
7

>  <standard_flag>  (60) 
True

>  <standard_relation>  (60) 
=

>  <standard_text_value>  (60) 
nan

>  <standard_type>  (60) 
Ki

>  <standard_units>  (60) 
nM

>  <standard_upper_value>  (60) 
nan

>  <standard_value>  (60) 
5011.87

>  <target_chembl_id>  (60) 
CHEMBL4147

>  <target_organism>  (60) 
Homo sapiens

>  <target_pref_name>  (60) 
CaM kinase II alpha

>  <target_tax_id>  (60) 
9606

>  <text_value>  (60) 
nan

>  <toid>  (60) 
nan

>  <type>  (60) 
pKi

>  <units>  (60) 
nan

>  <uo_units>  (60) 
UO_0000065

>  <upper_value>  (60) 
nan

>  <value>  (60) 
5.3

>  <SMILES>  (60) 
Cc1nc(N)sc1c2ccnc(Nc3ccc(cc3)N4CCOCC4)n2

>  <NAME>  (60) 
CHEMBL482967

>  <FILTER>  (60) 
OK

>  <MW>  (60) 
368.466

>  <LogP>  (60) 
3.07092

>  <HBD>  (60) 
2

>  <HBA>  (60) 
8

>  <TPSA>  (60) 
89.19

>  <Label>  (60) 
CAMK2A

$$$$
CHEMBL1995765
     RDKit          2D

 13 14  0  0  0  0  0  0  0  0999 V2000
   -0.5773   -4.2803    0.0000 N   0  0  0  0  0  0  0  0  0  0  0  0
    0.8899   -3.9684    0.0000 C   0  0  0  0  0  0  0  0  0  0  0  0
    2.0046   -4.9721    0.0000 C   0  0  0  0  0  0  0  0  0  0  0  0
    3.3037   -4.2221    0.0000 C   0  0  0  0  0  0  0  0  0  0  0  0
    4.6740   -4.8322    0.0000 O   0  0  0  0  0  0  0  0  0  0  0  0
    2.9918   -2.7549    0.0000 N   0  0  0  0  0  0  0  0  0  0  0  0
    1.5000   -2.5981    0.0000 N   0  0  0  0  0  0  0  0  0  0  0  0
    0.7500   -1.2990    0.0000 C   0  0  0  0  0  0  0  0  0  0  0  0
    1.5000    0.0000    0.0000 C   0  0  0  0  0  0  0  0  0  0  0  0
    0.7500    1.2990    0.0000 C   0  0  0  0  0  0  0  0  0  0  0  0
   -0.7500    1.2990    0.0000 C   0  0  0  0  0  0  0  0  0  0  0  0
   -1.5000    0.0000    0.0000 C   0  0  0  0  0  0  0  0  0  0  0  0
   -0.7500   -1.2990    0.0000 N   0  0  0  0  0  0  0  0  0  0  0  0
  1  2  1  0
  2  3  2  0
  3  4  1  0
  4  5  2  0
  4  6  1  0
  6  7  1  0
  7  8  1  0
  8  9  2  0
  9 10  1  0
 10 11  2  0
 11 12  1  0
 12 13  2  0
  7  2  1  0
 13  8  1  0
M  END
>  <activity_comment>  (61) 
active

>  <activity_id>  (61) 
9515441

>  <activity_properties>  (61) 
[]

>  <assay_chembl_id>  (61) 
CHEMBL1964111

>  <assay_description>  (61) 
PUBCHEM_BIOASSAY: Navigating the Kinome. (Class of assay: other) Panel member name: CAMK2A

>  <assay_type>  (61) 
F

>  <bao_endpoint>  (61) 
BAO_0000192

>  <bao_format>  (61) 
BAO_0000019

>  <bao_label>  (61) 
assay format

>  <canonical_smiles>  (61) 
NC1=CC(=O)NN1c2ccccn2

>  <data_validity_comment>  (61) 
nan

>  <data_validity_description>  (61) 
nan

>  <document_chembl_id>  (61) 
CHEMBL1201862

>  <document_journal>  (61) 
nan

>  <document_year>  (61) 
nan

>  <ligand_efficiency>  (61) 
nan

>  <molecule_pref_name>  (61) 
nan

>  <parent_molecule_chembl_id>  (61) 
CHEMBL1995765

>  <pchembl_value>  (61) 
4.8

>  <potential_duplicate>  (61) 
False

>  <qudt_units>  (61) 
http://www.openphacts.org/units/Nanomolar

>  <record_id>  (61) 
1585179

>  <relation>  (61) 
=

>  <src_id>  (61) 
7

>  <standard_flag>  (61) 
True

>  <standard_relation>  (61) 
=

>  <standard_text_value>  (61) 
nan

>  <standard_type>  (61) 
Ki

>  <standard_units>  (61) 
nM

>  <standard_upper_value>  (61) 
nan

>  <standard_value>  (61) 
15848.93

>  <target_chembl_id>  (61) 
CHEMBL4147

>  <target_organism>  (61) 
Homo sapiens

>  <target_pref_name>  (61) 
CaM kinase II alpha

>  <target_tax_id>  (61) 
9606

>  <text_value>  (61) 
nan

>  <toid>  (61) 
nan

>  <type>  (61) 
pKi

>  <units>  (61) 
nan

>  <uo_units>  (61) 
UO_0000065

>  <upper_value>  (61) 
nan

>  <value>  (61) 
4.8

>  <SMILES>  (61) 
NC1=CC(=O)NN1c2ccccn2

>  <NAME>  (61) 
CHEMBL1995765

>  <FILTER>  (61) 
OK

>  <MW>  (61) 
176.179

>  <LogP>  (61) 
0.1428

>  <HBD>  (61) 
2

>  <HBA>  (61) 
4

>  <TPSA>  (61) 
76.7

>  <Label>  (61) 
CAMK2A

$$$$
CHEMBL1983111
     RDKit          2D

 34 38  0  0  0  0  0  0  0  0999 V2000
   -2.5981   -9.6073    0.0000 C   0  0  0  0  0  0  0  0  0  0  0  0
   -2.5981   -8.1073    0.0000 C   0  0  0  0  0  0  0  0  0  0  0  0
   -3.8971   -7.3573    0.0000 O   0  0  0  0  0  0  0  0  0  0  0  0
   -1.2990   -7.3573    0.0000 N   0  0  0  0  0  0  0  0  0  0  0  0
   -1.2990   -5.8573    0.0000 C   0  0  0  0  0  0  0  0  0  0  0  0
    0.0000   -5.1073    0.0000 C   0  0  0  0  0  0  0  0  0  0  0  0
    1.2990   -5.8573    0.0000 O   0  0  0  0  0  0  0  0  0  0  0  0
    0.0000   -3.6073    0.0000 N   0  0  0  0  0  0  0  0  0  0  0  0
   -1.2135   -2.7256    0.0000 C   0  0  0  0  0  0  0  0  0  0  0  0
   -0.7500   -4.1522    0.0000 C   0  0  0  0  0  0  0  0  0  0  0  0
    0.7500   -4.1522    0.0000 C   0  0  0  0  0  0  0  0  0  0  0  0
    1.2135   -2.7256    0.0000 C   0  0  0  0  0  0  0  0  0  0  0  0
    0.7500   -1.2990    0.0000 C   0  0  0  0  0  0  0  0  0  0  0  0
    1.5000    0.0000    0.0000 C   0  0  0  0  0  0  0  0  0  0  0  0
    0.7500    1.2990    0.0000 C   0  0  0  0  0  0  0  0  0  0  0  0
    1.5000    2.5981    0.0000 N   0  0  0  0  0  0  0  0  0  0  0  0
    3.0000    2.5981    0.0000 C   0  0  0  0  0  0  0  0  0  0  0  0
    3.7500    1.2990    0.0000 N   0  0  0  0  0  0  0  0  0  0  0  0
    5.2500    1.2990    0.0000 C   0  0  0  0  0  0  0  0  0  0  0  0
    6.0000    2.5981    0.0000 C   0  0  0  0  0  0  0  0  0  0  0  0
    5.2500    3.8971    0.0000 C   0  0  0  0  0  0  0  0  0  0  0  0
    6.0000    5.1962    0.0000 N   0  0  0  0  0  0  0  0  0  0  0  0
    5.2500    6.4952    0.0000 C   0  0  0  0  0  0  0  0  0  0  0  0
    5.6382    7.9441    0.0000 C   0  0  0  0  0  0  0  0  0  0  0  0
    4.1893    8.3323    0.0000 C   0  0  0  0  0  0  0  0  0  0  0  0
    3.8011    6.8834    0.0000 C   0  0  0  0  0  0  0  0  0  0  0  0
    3.7500    3.8971    0.0000 N   0  0  0  0  0  0  0  0  0  0  0  0
    7.5000    2.5981    0.0000 C   0  0  0  0  0  0  0  0  0  0  0  0
    9.0000    2.5981    0.0000 F   0  0  0  0  0  0  0  0  0  0  0  0
    7.5000    1.0981    0.0000 F   0  0  0  0  0  0  0  0  0  0  0  0
    7.5000    4.0981    0.0000 F   0  0  0  0  0  0  0  0  0  0  0  0
   -0.7500    1.2990    0.0000 C   0  0  0  0  0  0  0  0  0  0  0  0
   -1.5000    0.0000    0.0000 C   0  0  0  0  0  0  0  0  0  0  0  0
   -0.7500   -1.2990    0.0000 C   0  0  0  0  0  0  0  0  0  0  0  0
  1  2  1  0
  2  3  2  0
  2  4  1  0
  4  5  1  0
  5  6  1  0
  6  7  2  0
  6  8  1  0
  8  9  1  0
  9 10  1  0
 10 11  1  0
 11 12  1  0
 12 13  1  0
 13 14  2  0
 14 15  1  0
 15 16  1  0
 16 17  1  0
 17 18  2  0
 18 19  1  0
 19 20  2  0
 20 21  1  0
 21 22  1  0
 22 23  1  0
 23 24  1  0
 24 25  1  0
 25 26  1  0
 21 27  2  0
 20 28  1  0
 28 29  1  0
 28 30  1  0
 28 31  1  0
 15 32  2  0
 32 33  1  0
 33 34  2  0
 12  8  1  0
 34  9  1  0
 34 13  1  0
 27 17  1  0
 26 23  1  0
M  END
>  <activity_comment>  (62) 
active

>  <activity_id>  (62) 
9515450

>  <activity_properties>  (62) 
[]

>  <assay_chembl_id>  (62) 
CHEMBL1964111

>  <assay_description>  (62) 
PUBCHEM_BIOASSAY: Navigating the Kinome. (Class of assay: other) Panel member name: CAMK2A

>  <assay_type>  (62) 
F

>  <bao_endpoint>  (62) 
BAO_0000192

>  <bao_format>  (62) 
BAO_0000019

>  <bao_label>  (62) 
assay format

>  <canonical_smiles>  (62) 
CC(=O)NCC(=O)N1C2CCC1c3cc(Nc4ncc(c(NC5CCC5)n4)C(F)(F)F)ccc23

>  <data_validity_comment>  (62) 
nan

>  <data_validity_description>  (62) 
nan

>  <document_chembl_id>  (62) 
CHEMBL1201862

>  <document_journal>  (62) 
nan

>  <document_year>  (62) 
nan

>  <ligand_efficiency>  (62) 
nan

>  <molecule_pref_name>  (62) 
nan

>  <parent_molecule_chembl_id>  (62) 
CHEMBL1983111

>  <pchembl_value>  (62) 
5.5

>  <potential_duplicate>  (62) 
False

>  <qudt_units>  (62) 
http://www.openphacts.org/units/Nanomolar

>  <record_id>  (62) 
1584621

>  <relation>  (62) 
=

>  <src_id>  (62) 
7

>  <standard_flag>  (62) 
True

>  <standard_relation>  (62) 
=

>  <standard_text_value>  (62) 
nan

>  <standard_type>  (62) 
Ki

>  <standard_units>  (62) 
nM

>  <standard_upper_value>  (62) 
nan

>  <standard_value>  (62) 
3162.28

>  <target_chembl_id>  (62) 
CHEMBL4147

>  <target_organism>  (62) 
Homo sapiens

>  <target_pref_name>  (62) 
CaM kinase II alpha

>  <target_tax_id>  (62) 
9606

>  <text_value>  (62) 
nan

>  <toid>  (62) 
nan

>  <type>  (62) 
pKi

>  <units>  (62) 
nan

>  <uo_units>  (62) 
UO_0000065

>  <upper_value>  (62) 
nan

>  <value>  (62) 
5.5

>  <SMILES>  (62) 
CC(=O)NCC(=O)N1C2CCC1c3cc(Nc4ncc(c(NC5CCC5)n4)C(F)(F)F)ccc23

>  <NAME>  (62) 
CHEMBL1983111

>  <FILTER>  (62) 
OK

>  <MW>  (62) 
474.487

>  <LogP>  (62) 
4.0577

>  <HBD>  (62) 
3

>  <HBA>  (62) 
6

>  <TPSA>  (62) 
99.25

>  <Label>  (62) 
CAMK2A

$$$$
CHEMBL1988141
     RDKit          2D

 20 21  0  0  0  0  0  0  0  0999 V2000
    6.0000   -2.5981    0.0000 C   0  0  0  0  0  0  0  0  0  0  0  0
    5.2500   -1.2990    0.0000 C   0  0  0  0  0  0  0  0  0  0  0  0
    3.7500   -1.2990    0.0000 C   0  0  0  0  0  0  0  0  0  0  0  0
    3.0000   -2.5981    0.0000 O   0  0  0  0  0  0  0  0  0  0  0  0
    3.0000    0.0000    0.0000 N   0  0  0  0  0  0  0  0  0  0  0  0
    1.5000    0.0000    0.0000 C   0  0  0  0  0  0  0  0  0  0  0  0
    0.7500   -1.2990    0.0000 C   0  0  0  0  0  0  0  0  0  0  0  0
   -0.7500   -1.2990    0.0000 C   0  0  0  0  0  0  0  0  0  0  0  0
   -1.5000    0.0000    0.0000 C   0  0  0  0  0  0  0  0  0  0  0  0
   -3.0000    0.0000    0.0000 C   0  0  0  0  0  0  0  0  0  0  0  0
   -3.7500   -1.2990    0.0000 O   0  0  0  0  0  0  0  0  0  0  0  0
   -3.7500    1.2990    0.0000 N   0  0  0  0  0  0  0  0  0  0  0  0
   -3.0000    2.5981    0.0000 C   0  0  0  0  0  0  0  0  0  0  0  0
   -3.7500    3.8971    0.0000 C   0  0  0  0  0  0  0  0  0  0  0  0
   -5.2500    3.8971    0.0000 N   0  0  0  0  0  0  0  0  0  0  0  0
   -6.0000    2.5981    0.0000 C   0  0  0  0  0  0  0  0  0  0  0  0
   -5.2500    1.2990    0.0000 C   0  0  0  0  0  0  0  0  0  0  0  0
   -0.7500    1.2990    0.0000 C   0  0  0  0  0  0  0  0  0  0  0  0
   -1.5000    2.5981    0.0000 O   0  0  0  0  0  0  0  0  0  0  0  0
    0.7500    1.2990    0.0000 C   0  0  0  0  0  0  0  0  0  0  0  0
  1  2  1  0
  2  3  1  0
  3  4  2  0
  3  5  1  0
  5  6  1  0
  6  7  2  0
  7  8  1  0
  8  9  2  0
  9 10  1  0
 10 11  2  0
 10 12  1  0
 12 13  1  0
 13 14  1  0
 14 15  1  0
 15 16  1  0
 16 17  1  0
  9 18  1  0
 18 19  1  0
 18 20  2  0
 20  6  1  0
 17 12  1  0
M  END
>  <activity_comment>  (63) 
active

>  <activity_id>  (63) 
9515451

>  <activity_properties>  (63) 
[]

>  <assay_chembl_id>  (63) 
CHEMBL1964111

>  <assay_description>  (63) 
PUBCHEM_BIOASSAY: Navigating the Kinome. (Class of assay: other) Panel member name: CAMK2A

>  <assay_type>  (63) 
F

>  <bao_endpoint>  (63) 
BAO_0000192

>  <bao_format>  (63) 
BAO_0000019

>  <bao_label>  (63) 
assay format

>  <canonical_smiles>  (63) 
CCC(=O)Nc1ccc(C(=O)N2CCNCC2)c(O)c1

>  <data_validity_comment>  (63) 
nan

>  <data_validity_description>  (63) 
nan

>  <document_chembl_id>  (63) 
CHEMBL1201862

>  <document_journal>  (63) 
nan

>  <document_year>  (63) 
nan

>  <ligand_efficiency>  (63) 
nan

>  <molecule_pref_name>  (63) 
nan

>  <parent_molecule_chembl_id>  (63) 
CHEMBL1988141

>  <pchembl_value>  (63) 
6.8

>  <potential_duplicate>  (63) 
False

>  <qudt_units>  (63) 
http://www.openphacts.org/units/Nanomolar

>  <record_id>  (63) 
1585434

>  <relation>  (63) 
=

>  <src_id>  (63) 
7

>  <standard_flag>  (63) 
True

>  <standard_relation>  (63) 
=

>  <standard_text_value>  (63) 
nan

>  <standard_type>  (63) 
Ki

>  <standard_units>  (63) 
nM

>  <standard_upper_value>  (63) 
nan

>  <standard_value>  (63) 
158.49

>  <target_chembl_id>  (63) 
CHEMBL4147

>  <target_organism>  (63) 
Homo sapiens

>  <target_pref_name>  (63) 
CaM kinase II alpha

>  <target_tax_id>  (63) 
9606

>  <text_value>  (63) 
nan

>  <toid>  (63) 
nan

>  <type>  (63) 
pKi

>  <units>  (63) 
nan

>  <uo_units>  (63) 
UO_0000065

>  <upper_value>  (63) 
nan

>  <value>  (63) 
6.8

>  <SMILES>  (63) 
CCC(=O)Nc1ccc(C(=O)N2CCNCC2)c(O)c1

>  <NAME>  (63) 
CHEMBL1988141

>  <FILTER>  (63) 
OK

>  <MW>  (63) 
277.324

>  <LogP>  (63) 
0.7861

>  <HBD>  (63) 
3

>  <HBA>  (63) 
4

>  <TPSA>  (63) 
81.67

>  <Label>  (63) 
CAMK2A

$$$$
CHEMBL1991078
     RDKit          2D

 34 38  0  0  0  0  0  0  0  0999 V2000
   -9.7730   -5.5068    0.0000 C   0  0  0  0  0  0  0  0  0  0  0  0
   -8.6583   -6.5105    0.0000 O   0  0  0  0  0  0  0  0  0  0  0  0
   -7.2317   -6.0469    0.0000 C   0  0  0  0  0  0  0  0  0  0  0  0
   -6.9199   -4.5797    0.0000 C   0  0  0  0  0  0  0  0  0  0  0  0
   -5.4933   -4.1162    0.0000 C   0  0  0  0  0  0  0  0  0  0  0  0
   -4.3786   -5.1199    0.0000 C   0  0  0  0  0  0  0  0  0  0  0  0
   -4.6904   -6.5871    0.0000 C   0  0  0  0  0  0  0  0  0  0  0  0
   -6.1170   -7.0506    0.0000 C   0  0  0  0  0  0  0  0  0  0  0  0
   -6.4289   -8.5179    0.0000 O   0  0  0  0  0  0  0  0  0  0  0  0
   -5.3142   -9.5216    0.0000 C   0  0  0  0  0  0  0  0  0  0  0  0
   -2.9520   -4.6564    0.0000 C   0  0  0  0  0  0  0  0  0  0  0  0
   -1.8373   -5.6601    0.0000 O   0  0  0  0  0  0  0  0  0  0  0  0
   -2.6401   -3.1891    0.0000 N   0  0  0  0  0  0  0  0  0  0  0  0
   -1.2135   -2.7256    0.0000 C   0  0  0  0  0  0  0  0  0  0  0  0
    0.0000   -3.6073    0.0000 N   0  0  0  0  0  0  0  0  0  0  0  0
    1.2135   -2.7256    0.0000 N   0  0  0  0  0  0  0  0  0  0  0  0
    0.7500   -1.2990    0.0000 C   0  0  0  0  0  0  0  0  0  0  0  0
    1.5000    0.0000    0.0000 C   0  0  0  0  0  0  0  0  0  0  0  0
    0.7500    1.2990    0.0000 C   0  0  0  0  0  0  0  0  0  0  0  0
   -0.7500    1.2990    0.0000 C   0  0  0  0  0  0  0  0  0  0  0  0
   -1.5000    0.0000    0.0000 C   0  0  0  0  0  0  0  0  0  0  0  0
   -0.7500   -1.2990    0.0000 C   0  0  0  0  0  0  0  0  0  0  0  0
   -1.5000    2.5981    0.0000 C   0  0  0  0  0  0  0  0  0  0  0  0
   -2.9918    2.7549    0.0000 C   0  0  0  0  0  0  0  0  0  0  0  0
   -3.3037    4.2221    0.0000 N   0  0  0  0  0  0  0  0  0  0  0  0
   -4.6740    4.8322    0.0000 C   0  0  0  0  0  0  0  0  0  0  0  0
   -4.8308    6.3240    0.0000 C   0  0  0  0  0  0  0  0  0  0  0  0
   -3.6172    7.2057    0.0000 C   0  0  0  0  0  0  0  0  0  0  0  0
   -3.7740    8.6974    0.0000 C   0  0  0  0  0  0  0  0  0  0  0  0
   -5.1443    9.3075    0.0000 C   0  0  0  0  0  0  0  0  0  0  0  0
   -6.3579    8.4259    0.0000 C   0  0  0  0  0  0  0  0  0  0  0  0
   -6.2011    6.9341    0.0000 C   0  0  0  0  0  0  0  0  0  0  0  0
   -2.0046    4.9721    0.0000 N   0  0  0  0  0  0  0  0  0  0  0  0
   -0.8899    3.9684    0.0000 N   0  0  0  0  0  0  0  0  0  0  0  0
  1  2  1  0
  2  3  1  0
  3  4  2  0
  4  5  1  0
  5  6  2  0
  6  7  1  0
  7  8  2  0
  8  9  1  0
  9 10  1  0
  6 11  1  0
 11 12  2  0
 11 13  1  0
 13 14  1  0
 14 15  2  0
 15 16  1  0
 16 17  1  0
 17 18  2  0
 18 19  1  0
 19 20  2  0
 20 21  1  0
 21 22  2  0
 20 23  1  0
 23 24  2  0
 24 25  1  0
 25 26  1  0
 26 27  1  0
 27 28  2  0
 28 29  1  0
 29 30  2  0
 30 31  1  0
 31 32  2  0
 25 33  1  0
 33 34  2  0
  8  3  1  0
 22 14  1  0
 22 17  1  0
 34 23  1  0
 32 27  1  0
M  END
>  <activity_comment>  (64) 
active

>  <activity_id>  (64) 
9515456

>  <activity_properties>  (64) 
[]

>  <assay_chembl_id>  (64) 
CHEMBL1964111

>  <assay_description>  (64) 
PUBCHEM_BIOASSAY: Navigating the Kinome. (Class of assay: other) Panel member name: CAMK2A

>  <assay_type>  (64) 
F

>  <bao_endpoint>  (64) 
BAO_0000192

>  <bao_format>  (64) 
BAO_0000019

>  <bao_label>  (64) 
assay format

>  <canonical_smiles>  (64) 
COc1ccc(cc1OC)C(=O)Nc2n[nH]c3ccc(cc23)c4cn(Cc5ccccc5)nn4

>  <data_validity_comment>  (64) 
nan

>  <data_validity_description>  (64) 
nan

>  <document_chembl_id>  (64) 
CHEMBL1201862

>  <document_journal>  (64) 
nan

>  <document_year>  (64) 
nan

>  <ligand_efficiency>  (64) 
nan

>  <molecule_pref_name>  (64) 
nan

>  <parent_molecule_chembl_id>  (64) 
CHEMBL1991078

>  <pchembl_value>  (64) 
6.4

>  <potential_duplicate>  (64) 
False

>  <qudt_units>  (64) 
http://www.openphacts.org/units/Nanomolar

>  <record_id>  (64) 
1584387

>  <relation>  (64) 
=

>  <src_id>  (64) 
7

>  <standard_flag>  (64) 
True

>  <standard_relation>  (64) 
=

>  <standard_text_value>  (64) 
nan

>  <standard_type>  (64) 
Ki

>  <standard_units>  (64) 
nM

>  <standard_upper_value>  (64) 
nan

>  <standard_value>  (64) 
398.11

>  <target_chembl_id>  (64) 
CHEMBL4147

>  <target_organism>  (64) 
Homo sapiens

>  <target_pref_name>  (64) 
CaM kinase II alpha

>  <target_tax_id>  (64) 
9606

>  <text_value>  (64) 
nan

>  <toid>  (64) 
nan

>  <type>  (64) 
pKi

>  <units>  (64) 
nan

>  <uo_units>  (64) 
UO_0000065

>  <upper_value>  (64) 
nan

>  <value>  (64) 
6.4

>  <SMILES>  (64) 
COc1ccc(cc1OC)C(=O)Nc2n[nH]c3ccc(cc23)c4cn(Cc5ccccc5)nn4

>  <NAME>  (64) 
CHEMBL1991078

>  <FILTER>  (64) 
OK

>  <MW>  (64) 
454.49

>  <LogP>  (64) 
4.1392

>  <HBD>  (64) 
2

>  <HBA>  (64) 
7

>  <TPSA>  (64) 
106.95

>  <Label>  (64) 
CAMK2A

$$$$
CHEMBL2002450
     RDKit          2D

 18 20  0  0  0  0  0  0  0  0999 V2000
   -4.6883    2.2939    0.0000 C   0  0  0  0  0  0  0  0  0  0  0  0
   -3.5736    1.2902    0.0000 O   0  0  0  0  0  0  0  0  0  0  0  0
   -2.1470    1.7537    0.0000 C   0  0  0  0  0  0  0  0  0  0  0  0
   -1.8351    3.2209    0.0000 C   0  0  0  0  0  0  0  0  0  0  0  0
   -0.4086    3.6844    0.0000 C   0  0  0  0  0  0  0  0  0  0  0  0
    0.7062    2.6807    0.0000 C   0  0  0  0  0  0  0  0  0  0  0  0
    2.1328    3.1443    0.0000 C   0  0  0  0  0  0  0  0  0  0  0  0
    3.2475    2.1406    0.0000 C   0  0  0  0  0  0  0  0  0  0  0  0
    4.6741    2.6041    0.0000 C   0  0  0  0  0  0  0  0  0  0  0  0
    4.9859    4.0713    0.0000 C   0  0  0  0  0  0  0  0  0  0  0  0
    6.4125    4.5348    0.0000 N   0  0  0  0  0  0  0  0  0  0  0  0
    3.8712    5.0750    0.0000 C   0  0  0  0  0  0  0  0  0  0  0  0
    2.4446    4.6115    0.0000 C   0  0  0  0  0  0  0  0  0  0  0  0
    0.3943    1.2135    0.0000 C   0  0  0  0  0  0  0  0  0  0  0  0
    1.2760    0.0000    0.0000 C   0  0  0  0  0  0  0  0  0  0  0  0
    0.3943   -1.2135    0.0000 N   0  0  0  0  0  0  0  0  0  0  0  0
   -1.0323   -0.7500    0.0000 O   0  0  0  0  0  0  0  0  0  0  0  0
   -1.0323    0.7500    0.0000 C   0  0  0  0  0  0  0  0  0  0  0  0
  1  2  1  0
  2  3  1  0
  3  4  2  0
  4  5  1  0
  5  6  2  0
  6  7  1  0
  7  8  2  0
  8  9  1  0
  9 10  2  0
 10 11  1  0
 10 12  1  0
 12 13  2  0
  6 14  1  0
 14 15  1  0
 15 16  2  0
 16 17  1  0
 17 18  1  0
 18  3  1  0
 13  7  1  0
 18 14  2  0
M  END
>  <activity_comment>  (65) 
active

>  <activity_id>  (65) 
9515458

>  <activity_properties>  (65) 
[]

>  <assay_chembl_id>  (65) 
CHEMBL1964111

>  <assay_description>  (65) 
PUBCHEM_BIOASSAY: Navigating the Kinome. (Class of assay: other) Panel member name: CAMK2A

>  <assay_type>  (65) 
F

>  <bao_endpoint>  (65) 
BAO_0000192

>  <bao_format>  (65) 
BAO_0000019

>  <bao_label>  (65) 
assay format

>  <canonical_smiles>  (65) 
COc1ccc(c2ccc(N)cc2)c3cnoc13

>  <data_validity_comment>  (65) 
nan

>  <data_validity_description>  (65) 
nan

>  <document_chembl_id>  (65) 
CHEMBL1201862

>  <document_journal>  (65) 
nan

>  <document_year>  (65) 
nan

>  <ligand_efficiency>  (65) 
nan

>  <molecule_pref_name>  (65) 
nan

>  <parent_molecule_chembl_id>  (65) 
CHEMBL2002450

>  <pchembl_value>  (65) 
4.1

>  <potential_duplicate>  (65) 
False

>  <qudt_units>  (65) 
http://www.openphacts.org/units/Nanomolar

>  <record_id>  (65) 
1585338

>  <relation>  (65) 
=

>  <src_id>  (65) 
7

>  <standard_flag>  (65) 
True

>  <standard_relation>  (65) 
=

>  <standard_text_value>  (65) 
nan

>  <standard_type>  (65) 
Ki

>  <standard_units>  (65) 
nM

>  <standard_upper_value>  (65) 
nan

>  <standard_value>  (65) 
79432.82

>  <target_chembl_id>  (65) 
CHEMBL4147

>  <target_organism>  (65) 
Homo sapiens

>  <target_pref_name>  (65) 
CaM kinase II alpha

>  <target_tax_id>  (65) 
9606

>  <text_value>  (65) 
nan

>  <toid>  (65) 
nan

>  <type>  (65) 
pKi

>  <units>  (65) 
nan

>  <uo_units>  (65) 
UO_0000065

>  <upper_value>  (65) 
nan

>  <value>  (65) 
4.1

>  <SMILES>  (65) 
COc1ccc(c2ccc(N)cc2)c3cnoc13

>  <NAME>  (65) 
CHEMBL2002450

>  <FILTER>  (65) 
OK

>  <MW>  (65) 
240.262

>  <LogP>  (65) 
3.0856

>  <HBD>  (65) 
1

>  <HBA>  (65) 
4

>  <TPSA>  (65) 
61.28

>  <Label>  (65) 
CAMK2A

$$$$
CHEMBL1975212
     RDKit          2D

 16 18  0  0  0  0  0  0  0  0999 V2000
    3.0000    0.0000    0.0000 N   0  0  0  0  0  0  0  0  0  0  0  0
    1.5000    0.0000    0.0000 C   0  0  0  0  0  0  0  0  0  0  0  0
    0.7500   -1.2990    0.0000 N   0  0  0  0  0  0  0  0  0  0  0  0
   -0.7500   -1.2990    0.0000 C   0  0  0  0  0  0  0  0  0  0  0  0
   -1.5000    0.0000    0.0000 N   0  0  0  0  0  0  0  0  0  0  0  0
   -0.7500    1.2990    0.0000 C   0  0  0  0  0  0  0  0  0  0  0  0
   -1.2135    2.7256    0.0000 S   0  0  0  0  0  0  0  0  0  0  0  0
   -0.0000    3.6073    0.0000 C   0  0  0  0  0  0  0  0  0  0  0  0
    1.2135    2.7256    0.0000 C   0  0  0  0  0  0  0  0  0  0  0  0
    2.6401    3.1891    0.0000 C   0  0  0  0  0  0  0  0  0  0  0  0
    3.7548    2.1855    0.0000 C   0  0  0  0  0  0  0  0  0  0  0  0
    5.1814    2.6490    0.0000 C   0  0  0  0  0  0  0  0  0  0  0  0
    5.4933    4.1162    0.0000 C   0  0  0  0  0  0  0  0  0  0  0  0
    4.3786    5.1199    0.0000 C   0  0  0  0  0  0  0  0  0  0  0  0
    2.9520    4.6564    0.0000 C   0  0  0  0  0  0  0  0  0  0  0  0
    0.7500    1.2990    0.0000 C   0  0  0  0  0  0  0  0  0  0  0  0
  1  2  1  0
  2  3  2  0
  3  4  1  0
  4  5  2  0
  5  6  1  0
  6  7  1  0
  7  8  1  0
  8  9  2  0
  9 10  1  0
 10 11  2  0
 11 12  1  0
 12 13  2  0
 13 14  1  0
 14 15  2  0
  9 16  1  0
 16  2  1  0
 16  6  2  0
 15 10  1  0
M  END
>  <activity_comment>  (66) 
active

>  <activity_id>  (66) 
9515459

>  <activity_properties>  (66) 
[]

>  <assay_chembl_id>  (66) 
CHEMBL1964111

>  <assay_description>  (66) 
PUBCHEM_BIOASSAY: Navigating the Kinome. (Class of assay: other) Panel member name: CAMK2A

>  <assay_type>  (66) 
F

>  <bao_endpoint>  (66) 
BAO_0000192

>  <bao_format>  (66) 
BAO_0000019

>  <bao_label>  (66) 
assay format

>  <canonical_smiles>  (66) 
Nc1ncnc2scc(c3ccccc3)c12

>  <data_validity_comment>  (66) 
nan

>  <data_validity_description>  (66) 
nan

>  <document_chembl_id>  (66) 
CHEMBL1201862

>  <document_journal>  (66) 
nan

>  <document_year>  (66) 
nan

>  <ligand_efficiency>  (66) 
nan

>  <molecule_pref_name>  (66) 
nan

>  <parent_molecule_chembl_id>  (66) 
CHEMBL1975212

>  <pchembl_value>  (66) 
4.7

>  <potential_duplicate>  (66) 
False

>  <qudt_units>  (66) 
http://www.openphacts.org/units/Nanomolar

>  <record_id>  (66) 
1584736

>  <relation>  (66) 
=

>  <src_id>  (66) 
7

>  <standard_flag>  (66) 
True

>  <standard_relation>  (66) 
=

>  <standard_text_value>  (66) 
nan

>  <standard_type>  (66) 
Ki

>  <standard_units>  (66) 
nM

>  <standard_upper_value>  (66) 
nan

>  <standard_value>  (66) 
19952.62

>  <target_chembl_id>  (66) 
CHEMBL4147

>  <target_organism>  (66) 
Homo sapiens

>  <target_pref_name>  (66) 
CaM kinase II alpha

>  <target_tax_id>  (66) 
9606

>  <text_value>  (66) 
nan

>  <toid>  (66) 
nan

>  <type>  (66) 
pKi

>  <units>  (66) 
nan

>  <uo_units>  (66) 
UO_0000065

>  <upper_value>  (66) 
nan

>  <value>  (66) 
4.7

>  <SMILES>  (66) 
Nc1ncnc2scc(c3ccccc3)c12

>  <NAME>  (66) 
CHEMBL1975212

>  <FILTER>  (66) 
OK

>  <MW>  (66) 
227.292

>  <LogP>  (66) 
2.9405

>  <HBD>  (66) 
1

>  <HBA>  (66) 
4

>  <TPSA>  (66) 
51.8

>  <Label>  (66) 
CAMK2A

$$$$
CHEMBL2001613
     RDKit          2D

 11 12  0  0  0  0  0  0  0  0999 V2000
    3.0000    0.0000    0.0000 Br  0  0  0  0  0  0  0  0  0  0  0  0
    1.5000    0.0000    0.0000 C   0  0  0  0  0  0  0  0  0  0  0  0
    0.7500   -1.2990    0.0000 C   0  0  0  0  0  0  0  0  0  0  0  0
   -0.7500   -1.2990    0.0000 C   0  0  0  0  0  0  0  0  0  0  0  0
   -1.5000    0.0000    0.0000 C   0  0  0  0  0  0  0  0  0  0  0  0
   -2.9672    0.3119    0.0000 N   0  0  0  0  0  0  0  0  0  0  0  0
   -3.1240    1.8037    0.0000 N   0  0  0  0  0  0  0  0  0  0  0  0
   -1.7537    2.4138    0.0000 C   0  0  0  0  0  0  0  0  0  0  0  0
   -1.4418    3.8810    0.0000 O   0  0  0  0  0  0  0  0  0  0  0  0
   -0.7500    1.2990    0.0000 C   0  0  0  0  0  0  0  0  0  0  0  0
    0.7500    1.2990    0.0000 C   0  0  0  0  0  0  0  0  0  0  0  0
  1  2  1  0
  2  3  2  0
  3  4  1  0
  4  5  2  0
  5  6  1  0
  6  7  1  0
  7  8  1  0
  8  9  2  0
  8 10  1  0
 10 11  2  0
 11  2  1  0
 10  5  1  0
M  END
>  <activity_comment>  (67) 
active

>  <activity_id>  (67) 
9515460

>  <activity_properties>  (67) 
[]

>  <assay_chembl_id>  (67) 
CHEMBL1964111

>  <assay_description>  (67) 
PUBCHEM_BIOASSAY: Navigating the Kinome. (Class of assay: other) Panel member name: CAMK2A

>  <assay_type>  (67) 
F

>  <bao_endpoint>  (67) 
BAO_0000192

>  <bao_format>  (67) 
BAO_0000019

>  <bao_label>  (67) 
assay format

>  <canonical_smiles>  (67) 
Brc1ccc2NNC(=O)c2c1

>  <data_validity_comment>  (67) 
nan

>  <data_validity_description>  (67) 
nan

>  <document_chembl_id>  (67) 
CHEMBL1201862

>  <document_journal>  (67) 
nan

>  <document_year>  (67) 
nan

>  <ligand_efficiency>  (67) 
nan

>  <molecule_pref_name>  (67) 
nan

>  <parent_molecule_chembl_id>  (67) 
CHEMBL2001613

>  <pchembl_value>  (67) 
4.5

>  <potential_duplicate>  (67) 
False

>  <qudt_units>  (67) 
http://www.openphacts.org/units/Nanomolar

>  <record_id>  (67) 
1584324

>  <relation>  (67) 
=

>  <src_id>  (67) 
7

>  <standard_flag>  (67) 
True

>  <standard_relation>  (67) 
=

>  <standard_text_value>  (67) 
nan

>  <standard_type>  (67) 
Ki

>  <standard_units>  (67) 
nM

>  <standard_upper_value>  (67) 
nan

>  <standard_value>  (67) 
31622.78

>  <target_chembl_id>  (67) 
CHEMBL4147

>  <target_organism>  (67) 
Homo sapiens

>  <target_pref_name>  (67) 
CaM kinase II alpha

>  <target_tax_id>  (67) 
9606

>  <text_value>  (67) 
nan

>  <toid>  (67) 
nan

>  <type>  (67) 
pKi

>  <units>  (67) 
nan

>  <uo_units>  (67) 
UO_0000065

>  <upper_value>  (67) 
nan

>  <value>  (67) 
4.5

>  <SMILES>  (67) 
Brc1ccc2NNC(=O)c2c1

>  <NAME>  (67) 
CHEMBL2001613

>  <FILTER>  (67) 
OK

>  <MW>  (67) 
213.034

>  <LogP>  (67) 
1.6187

>  <HBD>  (67) 
2

>  <HBA>  (67) 
1

>  <TPSA>  (67) 
48.65

>  <Label>  (67) 
CAMK2A

$$$$
CHEMBL565612
     RDKit          2D

 33 38  0  0  0  0  0  0  0  0999 V2000
   -3.7500   -9.0933    0.0000 C   0  0  0  0  0  0  0  0  0  0  0  0
   -3.0000   -7.7942    0.0000 N   0  0  0  0  0  0  0  0  0  0  0  0
   -3.7500   -6.4952    0.0000 C   0  0  0  0  0  0  0  0  0  0  0  0
   -3.0000   -5.1962    0.0000 C   0  0  0  0  0  0  0  0  0  0  0  0
   -1.5000   -5.1962    0.0000 N   0  0  0  0  0  0  0  0  0  0  0  0
   -0.7500   -6.4952    0.0000 C   0  0  0  0  0  0  0  0  0  0  0  0
   -1.5000   -7.7942    0.0000 C   0  0  0  0  0  0  0  0  0  0  0  0
   -0.7500   -3.8971    0.0000 C   0  0  0  0  0  0  0  0  0  0  0  0
    0.7500   -3.8971    0.0000 N   0  0  0  0  0  0  0  0  0  0  0  0
    1.5000   -2.5981    0.0000 C   0  0  0  0  0  0  0  0  0  0  0  0
    3.0000   -2.5981    0.0000 C   0  0  0  0  0  0  0  0  0  0  0  0
    3.8817   -1.3846    0.0000 C   0  0  0  0  0  0  0  0  0  0  0  0
    5.3083   -1.8481    0.0000 C   0  0  0  0  0  0  0  0  0  0  0  0
    6.5218   -0.9664    0.0000 O   0  0  0  0  0  0  0  0  0  0  0  0
    5.3083   -3.3481    0.0000 N   0  0  0  0  0  0  0  0  0  0  0  0
    3.8817   -3.8116    0.0000 C   0  0  0  0  0  0  0  0  0  0  0  0
    3.4182   -5.2382    0.0000 O   0  0  0  0  0  0  0  0  0  0  0  0
    3.4182    0.0420    0.0000 C   0  0  0  0  0  0  0  0  0  0  0  0
    1.9916    0.5056    0.0000 C   0  0  0  0  0  0  0  0  0  0  0  0
    1.9916    2.0056    0.0000 N   0  0  0  0  0  0  0  0  0  0  0  0
    3.4182    2.4691    0.0000 C   0  0  0  0  0  0  0  0  0  0  0  0
    4.0283    3.8394    0.0000 C   0  0  0  0  0  0  0  0  0  0  0  0
    5.5200    3.9962    0.0000 C   0  0  0  0  0  0  0  0  0  0  0  0
    6.4017    2.7827    0.0000 C   0  0  0  0  0  0  0  0  0  0  0  0
    5.7916    1.4124    0.0000 C   0  0  0  0  0  0  0  0  0  0  0  0
    4.2998    1.2556    0.0000 C   0  0  0  0  0  0  0  0  0  0  0  0
    0.7500   -1.2990    0.0000 C   0  0  0  0  0  0  0  0  0  0  0  0
    1.5000    0.0000    0.0000 C   0  0  0  0  0  0  0  0  0  0  0  0
    0.7500    1.2990    0.0000 C   0  0  0  0  0  0  0  0  0  0  0  0
   -0.7500    1.2990    0.0000 C   0  0  0  0  0  0  0  0  0  0  0  0
   -1.5000    0.0000    0.0000 C   0  0  0  0  0  0  0  0  0  0  0  0
   -0.7500   -1.2990    0.0000 C   0  0  0  0  0  0  0  0  0  0  0  0
   -1.5000   -2.5981    0.0000 N   0  0  0  0  0  0  0  0  0  0  0  0
  1  2  1  0
  2  3  1  0
  3  4  1  0
  4  5  1  0
  5  6  1  0
  6  7  1  0
  5  8  1  0
  8  9  2  0
  9 10  1  0
 10 11  1  0
 11 12  2  0
 12 13  1  0
 13 14  2  0
 13 15  1  0
 15 16  1  0
 16 17  2  0
 12 18  1  0
 18 19  2  0
 19 20  1  0
 20 21  1  0
 21 22  2  0
 22 23  1  0
 23 24  2  0
 24 25  1  0
 25 26  2  0
 10 27  2  0
 27 28  1  0
 28 29  2  0
 29 30  1  0
 30 31  2  0
 31 32  1  0
 32 33  2  0
  7  2  1  0
 33  8  1  0
 16 11  1  0
 26 18  1  0
 26 21  1  0
 32 27  1  0
M  END
>  <activity_comment>  (68) 
active

>  <activity_id>  (68) 
9515463

>  <activity_properties>  (68) 
[]

>  <assay_chembl_id>  (68) 
CHEMBL1964111

>  <assay_description>  (68) 
PUBCHEM_BIOASSAY: Navigating the Kinome. (Class of assay: other) Panel member name: CAMK2A

>  <assay_type>  (68) 
F

>  <bao_endpoint>  (68) 
BAO_0000192

>  <bao_format>  (68) 
BAO_0000019

>  <bao_label>  (68) 
assay format

>  <canonical_smiles>  (68) 
CN1CCN(CC1)c2nc(C3=C(C(=O)NC3=O)c4c[nH]c5ccccc45)c6ccccc6n2

>  <data_validity_comment>  (68) 
nan

>  <data_validity_description>  (68) 
nan

>  <document_chembl_id>  (68) 
CHEMBL1201862

>  <document_journal>  (68) 
nan

>  <document_year>  (68) 
nan

>  <ligand_efficiency>  (68) 
nan

>  <molecule_pref_name>  (68) 
SOTRASTAURIN

>  <parent_molecule_chembl_id>  (68) 
CHEMBL565612

>  <pchembl_value>  (68) 
5.5

>  <potential_duplicate>  (68) 
False

>  <qudt_units>  (68) 
http://www.openphacts.org/units/Nanomolar

>  <record_id>  (68) 
1584938

>  <relation>  (68) 
=

>  <src_id>  (68) 
7

>  <standard_flag>  (68) 
True

>  <standard_relation>  (68) 
=

>  <standard_text_value>  (68) 
nan

>  <standard_type>  (68) 
Ki

>  <standard_units>  (68) 
nM

>  <standard_upper_value>  (68) 
nan

>  <standard_value>  (68) 
3162.28

>  <target_chembl_id>  (68) 
CHEMBL4147

>  <target_organism>  (68) 
Homo sapiens

>  <target_pref_name>  (68) 
CaM kinase II alpha

>  <target_tax_id>  (68) 
9606

>  <text_value>  (68) 
nan

>  <toid>  (68) 
nan

>  <type>  (68) 
pKi

>  <units>  (68) 
nan

>  <uo_units>  (68) 
UO_0000065

>  <upper_value>  (68) 
nan

>  <value>  (68) 
5.5

>  <SMILES>  (68) 
CN1CCN(CC1)c2nc(C3=C(C(=O)NC3=O)c4c[nH]c5ccccc45)c6ccccc6n2

>  <NAME>  (68) 
CHEMBL565612

>  <FILTER>  (68) 
OK

>  <MW>  (68) 
438.491

>  <LogP>  (68) 
2.4301

>  <HBD>  (68) 
2

>  <HBA>  (68) 
6

>  <TPSA>  (68) 
94.22

>  <Label>  (68) 
CAMK2A

$$$$
CHEMBL1982413
     RDKit          2D

 21 23  0  0  0  0  0  0  0  0999 V2000
   -5.2500   -3.8971    0.0000 C   0  0  0  0  0  0  0  0  0  0  0  0
   -3.7500   -3.8971    0.0000 N   0  0  0  0  0  0  0  0  0  0  0  0
   -3.0000   -2.5981    0.0000 C   0  0  0  0  0  0  0  0  0  0  0  0
   -1.5000   -2.5981    0.0000 C   0  0  0  0  0  0  0  0  0  0  0  0
   -0.7500   -3.8971    0.0000 C   0  0  0  0  0  0  0  0  0  0  0  0
    0.7500   -3.8971    0.0000 C   0  0  0  0  0  0  0  0  0  0  0  0
    1.5000   -5.1962    0.0000 Cl  0  0  0  0  0  0  0  0  0  0  0  0
    1.5000   -2.5981    0.0000 C   0  0  0  0  0  0  0  0  0  0  0  0
    3.0000   -2.5981    0.0000 O   0  0  0  0  0  0  0  0  0  0  0  0
    0.7500   -1.2990    0.0000 C   0  0  0  0  0  0  0  0  0  0  0  0
    1.5000    0.0000    0.0000 N   0  0  0  0  0  0  0  0  0  0  0  0
    0.7500    1.2990    0.0000 C   0  0  0  0  0  0  0  0  0  0  0  0
   -0.7500    1.2990    0.0000 C   0  0  0  0  0  0  0  0  0  0  0  0
   -1.5000    0.0000    0.0000 C   0  0  0  0  0  0  0  0  0  0  0  0
   -0.7500   -1.2990    0.0000 C   0  0  0  0  0  0  0  0  0  0  0  0
   -3.0000   -5.1962    0.0000 C   0  0  0  0  0  0  0  0  0  0  0  0
   -3.7500   -6.4952    0.0000 C   0  0  0  0  0  0  0  0  0  0  0  0
   -3.0000   -7.7942    0.0000 C   0  0  0  0  0  0  0  0  0  0  0  0
   -1.5000   -7.7942    0.0000 C   0  0  0  0  0  0  0  0  0  0  0  0
   -0.7500   -6.4952    0.0000 C   0  0  0  0  0  0  0  0  0  0  0  0
   -1.5000   -5.1962    0.0000 C   0  0  0  0  0  0  0  0  0  0  0  0
  1  2  1  0
  2  3  1  0
  3  4  1  0
  4  5  2  0
  5  6  1  0
  6  7  1  0
  6  8  2  0
  8  9  1  0
  8 10  1  0
 10 11  2  0
 11 12  1  0
 12 13  2  0
 13 14  1  0
 14 15  2  0
  2 16  1  0
 16 17  1  0
 17 18  1  0
 18 19  1  0
 19 20  1  0
 20 21  1  0
 15  4  1  0
 15 10  1  0
 21 16  1  0
M  END
>  <activity_comment>  (69) 
active

>  <activity_id>  (69) 
9515472

>  <activity_properties>  (69) 
[]

>  <assay_chembl_id>  (69) 
CHEMBL1964111

>  <assay_description>  (69) 
PUBCHEM_BIOASSAY: Navigating the Kinome. (Class of assay: other) Panel member name: CAMK2A

>  <assay_type>  (69) 
F

>  <bao_endpoint>  (69) 
BAO_0000192

>  <bao_format>  (69) 
BAO_0000019

>  <bao_label>  (69) 
assay format

>  <canonical_smiles>  (69) 
CN(Cc1cc(Cl)c(O)c2ncccc12)C3CCCCC3

>  <data_validity_comment>  (69) 
nan

>  <data_validity_description>  (69) 
nan

>  <document_chembl_id>  (69) 
CHEMBL1201862

>  <document_journal>  (69) 
nan

>  <document_year>  (69) 
nan

>  <ligand_efficiency>  (69) 
nan

>  <molecule_pref_name>  (69) 
nan

>  <parent_molecule_chembl_id>  (69) 
CHEMBL1982413

>  <pchembl_value>  (69) 
5.5

>  <potential_duplicate>  (69) 
False

>  <qudt_units>  (69) 
http://www.openphacts.org/units/Nanomolar

>  <record_id>  (69) 
1584969

>  <relation>  (69) 
=

>  <src_id>  (69) 
7

>  <standard_flag>  (69) 
True

>  <standard_relation>  (69) 
=

>  <standard_text_value>  (69) 
nan

>  <standard_type>  (69) 
Ki

>  <standard_units>  (69) 
nM

>  <standard_upper_value>  (69) 
nan

>  <standard_value>  (69) 
3162.28

>  <target_chembl_id>  (69) 
CHEMBL4147

>  <target_organism>  (69) 
Homo sapiens

>  <target_pref_name>  (69) 
CaM kinase II alpha

>  <target_tax_id>  (69) 
9606

>  <text_value>  (69) 
nan

>  <toid>  (69) 
nan

>  <type>  (69) 
pKi

>  <units>  (69) 
nan

>  <uo_units>  (69) 
UO_0000065

>  <upper_value>  (69) 
nan

>  <value>  (69) 
5.5

>  <SMILES>  (69) 
CN(Cc1cc(Cl)c(O)c2ncccc12)C3CCCCC3

>  <NAME>  (69) 
CHEMBL1982413

>  <FILTER>  (69) 
OK

>  <MW>  (69) 
304.821

>  <LogP>  (69) 
4.3583

>  <HBD>  (69) 
1

>  <HBA>  (69) 
3

>  <TPSA>  (69) 
36.36

>  <Label>  (69) 
CAMK2A

$$$$
CHEMBL1987535
     RDKit          2D

 25 28  0  0  0  0  0  0  0  0999 V2000
   -7.2317   -6.0469    0.0000 O   0  0  0  0  0  0  0  0  0  0  0  0
   -6.9199   -4.5797    0.0000 C   0  0  0  0  0  0  0  0  0  0  0  0
   -8.0346   -3.5760    0.0000 N   0  0  0  0  0  0  0  0  0  0  0  0
   -9.4612   -4.0396    0.0000 C   0  0  0  0  0  0  0  0  0  0  0  0
  -10.5759   -3.0359    0.0000 C   0  0  0  0  0  0  0  0  0  0  0  0
  -12.0025   -3.4994    0.0000 C   0  0  0  0  0  0  0  0  0  0  0  0
  -12.4660   -4.9260    0.0000 C   0  0  0  0  0  0  0  0  0  0  0  0
  -13.9660   -4.9260    0.0000 C   0  0  0  0  0  0  0  0  0  0  0  0
  -14.4295   -3.4994    0.0000 C   0  0  0  0  0  0  0  0  0  0  0  0
  -13.2160   -2.6177    0.0000 S   0  0  0  0  0  0  0  0  0  0  0  0
   -5.4933   -4.1162    0.0000 N   0  0  0  0  0  0  0  0  0  0  0  0
   -4.3786   -5.1199    0.0000 C   0  0  0  0  0  0  0  0  0  0  0  0
   -2.9520   -4.6564    0.0000 C   0  0  0  0  0  0  0  0  0  0  0  0
   -2.6401   -3.1891    0.0000 C   0  0  0  0  0  0  0  0  0  0  0  0
   -3.7548   -2.1855    0.0000 C   0  0  0  0  0  0  0  0  0  0  0  0
   -5.1814   -2.6490    0.0000 C   0  0  0  0  0  0  0  0  0  0  0  0
   -1.2135   -2.7256    0.0000 C   0  0  0  0  0  0  0  0  0  0  0  0
    0.0000   -3.6073    0.0000 C   0  0  0  0  0  0  0  0  0  0  0  0
    1.2135   -2.7256    0.0000 N   0  0  0  0  0  0  0  0  0  0  0  0
    0.7500   -1.2990    0.0000 C   0  0  0  0  0  0  0  0  0  0  0  0
    1.5000    0.0000    0.0000 N   0  0  0  0  0  0  0  0  0  0  0  0
    0.7500    1.2990    0.0000 C   0  0  0  0  0  0  0  0  0  0  0  0
   -0.7500    1.2990    0.0000 C   0  0  0  0  0  0  0  0  0  0  0  0
   -1.5000    0.0000    0.0000 C   0  0  0  0  0  0  0  0  0  0  0  0
   -0.7500   -1.2990    0.0000 C   0  0  0  0  0  0  0  0  0  0  0  0
  1  2  2  0
  2  3  1  0
  3  4  1  0
  4  5  1  0
  5  6  1  0
  6  7  2  0
  7  8  1  0
  8  9  2  0
  9 10  1  0
  2 11  1  0
 11 12  1  0
 12 13  1  0
 13 14  1  0
 14 15  2  0
 15 16  1  0
 14 17  1  0
 17 18  2  0
 18 19  1  0
 19 20  1  0
 20 21  2  0
 21 22  1  0
 22 23  2  0
 23 24  1  0
 24 25  2  0
 10  6  1  0
 16 11  1  0
 25 17  1  0
 25 20  1  0
M  END
>  <activity_comment>  (70) 
active

>  <activity_id>  (70) 
9515473

>  <activity_properties>  (70) 
[]

>  <assay_chembl_id>  (70) 
CHEMBL1964111

>  <assay_description>  (70) 
PUBCHEM_BIOASSAY: Navigating the Kinome. (Class of assay: other) Panel member name: CAMK2A

>  <assay_type>  (70) 
F

>  <bao_endpoint>  (70) 
BAO_0000192

>  <bao_format>  (70) 
BAO_0000019

>  <bao_label>  (70) 
assay format

>  <canonical_smiles>  (70) 
O=C(NCCc1cccs1)N2CCC(=CC2)c3c[nH]c4ncccc34

>  <data_validity_comment>  (70) 
nan

>  <data_validity_description>  (70) 
nan

>  <document_chembl_id>  (70) 
CHEMBL1201862

>  <document_journal>  (70) 
nan

>  <document_year>  (70) 
nan

>  <ligand_efficiency>  (70) 
nan

>  <molecule_pref_name>  (70) 
nan

>  <parent_molecule_chembl_id>  (70) 
CHEMBL1987535

>  <pchembl_value>  (70) 
5.4

>  <potential_duplicate>  (70) 
False

>  <qudt_units>  (70) 
http://www.openphacts.org/units/Nanomolar

>  <record_id>  (70) 
1584564

>  <relation>  (70) 
=

>  <src_id>  (70) 
7

>  <standard_flag>  (70) 
True

>  <standard_relation>  (70) 
=

>  <standard_text_value>  (70) 
nan

>  <standard_type>  (70) 
Ki

>  <standard_units>  (70) 
nM

>  <standard_upper_value>  (70) 
nan

>  <standard_value>  (70) 
3981.07

>  <target_chembl_id>  (70) 
CHEMBL4147

>  <target_organism>  (70) 
Homo sapiens

>  <target_pref_name>  (70) 
CaM kinase II alpha

>  <target_tax_id>  (70) 
9606

>  <text_value>  (70) 
nan

>  <toid>  (70) 
nan

>  <type>  (70) 
pKi

>  <units>  (70) 
nan

>  <uo_units>  (70) 
UO_0000065

>  <upper_value>  (70) 
nan

>  <value>  (70) 
5.4

>  <SMILES>  (70) 
O=C(NCCc1cccs1)N2CCC(=CC2)c3c[nH]c4ncccc34

>  <NAME>  (70) 
CHEMBL1987535

>  <FILTER>  (70) 
OK

>  <MW>  (70) 
352.463

>  <LogP>  (70) 
3.6658

>  <HBD>  (70) 
2

>  <HBA>  (70) 
3

>  <TPSA>  (70) 
61.02

>  <Label>  (70) 
CAMK2A

$$$$
CHEMBL1987815
     RDKit          2D

 17 19  0  0  0  0  0  0  0  0999 V2000
   -2.6380    5.6918    0.0000 N   0  0  0  0  0  0  0  0  0  0  0  0
   -2.9499    4.2246    0.0000 C   0  0  0  0  0  0  0  0  0  0  0  0
   -4.3764    3.7611    0.0000 O   0  0  0  0  0  0  0  0  0  0  0  0
   -1.8351    3.2209    0.0000 C   0  0  0  0  0  0  0  0  0  0  0  0
   -0.4086    3.6844    0.0000 C   0  0  0  0  0  0  0  0  0  0  0  0
    0.7062    2.6807    0.0000 C   0  0  0  0  0  0  0  0  0  0  0  0
    2.1328    3.1443    0.0000 C   0  0  0  0  0  0  0  0  0  0  0  0
    2.5963    4.5709    0.0000 C   0  0  0  0  0  0  0  0  0  0  0  0
    4.0963    4.5709    0.0000 C   0  0  0  0  0  0  0  0  0  0  0  0
    4.5598    3.1443    0.0000 C   0  0  0  0  0  0  0  0  0  0  0  0
    3.3463    2.2626    0.0000 S   0  0  0  0  0  0  0  0  0  0  0  0
    0.3943    1.2135    0.0000 N   0  0  0  0  0  0  0  0  0  0  0  0
    1.2760    0.0000    0.0000 N   0  0  0  0  0  0  0  0  0  0  0  0
    0.3943   -1.2135    0.0000 C   0  0  0  0  0  0  0  0  0  0  0  0
   -1.0323   -0.7500    0.0000 C   0  0  0  0  0  0  0  0  0  0  0  0
   -1.0323    0.7500    0.0000 C   0  0  0  0  0  0  0  0  0  0  0  0
   -2.1470    1.7537    0.0000 N   0  0  0  0  0  0  0  0  0  0  0  0
  1  2  1  0
  2  3  2  0
  2  4  1  0
  4  5  1  0
  5  6  2  0
  6  7  1  0
  7  8  2  0
  8  9  1  0
  9 10  2  0
 10 11  1  0
  6 12  1  0
 12 13  1  0
 13 14  2  0
 14 15  1  0
 15 16  2  0
 16 17  1  0
 17  4  2  0
 11  7  1  0
 16 12  1  0
M  END
>  <activity_comment>  (71) 
active

>  <activity_id>  (71) 
9515477

>  <activity_properties>  (71) 
[]

>  <assay_chembl_id>  (71) 
CHEMBL1964111

>  <assay_description>  (71) 
PUBCHEM_BIOASSAY: Navigating the Kinome. (Class of assay: other) Panel member name: CAMK2A

>  <assay_type>  (71) 
F

>  <bao_endpoint>  (71) 
BAO_0000192

>  <bao_format>  (71) 
BAO_0000019

>  <bao_label>  (71) 
assay format

>  <canonical_smiles>  (71) 
NC(=O)c1cc(c2cccs2)n3nccc3n1

>  <data_validity_comment>  (71) 
nan

>  <data_validity_description>  (71) 
nan

>  <document_chembl_id>  (71) 
CHEMBL1201862

>  <document_journal>  (71) 
nan

>  <document_year>  (71) 
nan

>  <ligand_efficiency>  (71) 
nan

>  <molecule_pref_name>  (71) 
nan

>  <parent_molecule_chembl_id>  (71) 
CHEMBL1987815

>  <pchembl_value>  (71) 
4.0

>  <potential_duplicate>  (71) 
False

>  <qudt_units>  (71) 
http://www.openphacts.org/units/Nanomolar

>  <record_id>  (71) 
1584955

>  <relation>  (71) 
=

>  <src_id>  (71) 
7

>  <standard_flag>  (71) 
True

>  <standard_relation>  (71) 
=

>  <standard_text_value>  (71) 
nan

>  <standard_type>  (71) 
Ki

>  <standard_units>  (71) 
nM

>  <standard_upper_value>  (71) 
nan

>  <standard_value>  (71) 
100000.0

>  <target_chembl_id>  (71) 
CHEMBL4147

>  <target_organism>  (71) 
Homo sapiens

>  <target_pref_name>  (71) 
CaM kinase II alpha

>  <target_tax_id>  (71) 
9606

>  <text_value>  (71) 
nan

>  <toid>  (71) 
nan

>  <type>  (71) 
pKi

>  <units>  (71) 
nan

>  <uo_units>  (71) 
UO_0000065

>  <upper_value>  (71) 
nan

>  <value>  (71) 
4.0

>  <SMILES>  (71) 
NC(=O)c1cc(c2cccs2)n3nccc3n1

>  <NAME>  (71) 
CHEMBL1987815

>  <FILTER>  (71) 
OK

>  <MW>  (71) 
244.279

>  <LogP>  (71) 
1.5567

>  <HBD>  (71) 
1

>  <HBA>  (71) 
5

>  <TPSA>  (71) 
73.28

>  <Label>  (71) 
CAMK2A

$$$$
CHEMBL1981133
     RDKit          2D

 30 34  0  0  0  0  0  0  0  0999 V2000
   -8.2500   -6.4952    0.0000 N   0  0  0  0  0  0  0  0  0  0  0  0
   -7.5000   -5.1962    0.0000 C   0  0  0  0  0  0  0  0  0  0  0  0
   -6.0000   -5.1962    0.0000 C   0  0  0  0  0  0  0  0  0  0  0  0
   -5.2500   -6.4952    0.0000 O   0  0  0  0  0  0  0  0  0  0  0  0
   -3.7500   -6.4952    0.0000 C   0  0  0  0  0  0  0  0  0  0  0  0
   -3.0000   -7.7942    0.0000 C   0  0  0  0  0  0  0  0  0  0  0  0
   -1.5000   -7.7942    0.0000 N   0  0  0  0  0  0  0  0  0  0  0  0
   -0.7500   -6.4952    0.0000 C   0  0  0  0  0  0  0  0  0  0  0  0
   -1.5000   -5.1962    0.0000 C   0  0  0  0  0  0  0  0  0  0  0  0
   -3.0000   -5.1962    0.0000 C   0  0  0  0  0  0  0  0  0  0  0  0
   -0.7500   -3.8971    0.0000 C   0  0  0  0  0  0  0  0  0  0  0  0
    0.7500   -3.8971    0.0000 C   0  0  0  0  0  0  0  0  0  0  0  0
    1.5000   -2.5981    0.0000 C   0  0  0  0  0  0  0  0  0  0  0  0
    0.7500   -1.2990    0.0000 C   0  0  0  0  0  0  0  0  0  0  0  0
    1.5000    0.0000    0.0000 C   0  0  0  0  0  0  0  0  0  0  0  0
    0.7500    1.2990    0.0000 N   0  0  0  0  0  0  0  0  0  0  0  0
   -0.7500    1.2990    0.0000 C   0  0  0  0  0  0  0  0  0  0  0  0
   -1.5000    0.0000    0.0000 C   0  0  0  0  0  0  0  0  0  0  0  0
   -0.7500   -1.2990    0.0000 C   0  0  0  0  0  0  0  0  0  0  0  0
   -1.5000   -2.5981    0.0000 C   0  0  0  0  0  0  0  0  0  0  0  0
   -8.2500   -3.8971    0.0000 C   0  0  0  0  0  0  0  0  0  0  0  0
   -9.7500   -3.8971    0.0000 C   0  0  0  0  0  0  0  0  0  0  0  0
  -10.6317   -5.1106    0.0000 C   0  0  0  0  0  0  0  0  0  0  0  0
  -12.0583   -4.6471    0.0000 N   0  0  0  0  0  0  0  0  0  0  0  0
  -12.0583   -3.1471    0.0000 C   0  0  0  0  0  0  0  0  0  0  0  0
  -13.1730   -2.1434    0.0000 C   0  0  0  0  0  0  0  0  0  0  0  0
  -12.8611   -0.6762    0.0000 C   0  0  0  0  0  0  0  0  0  0  0  0
  -11.4345   -0.2127    0.0000 C   0  0  0  0  0  0  0  0  0  0  0  0
  -10.3198   -1.2164    0.0000 C   0  0  0  0  0  0  0  0  0  0  0  0
  -10.6317   -2.6836    0.0000 C   0  0  0  0  0  0  0  0  0  0  0  0
  1  2  1  0
  2  3  1  0
  3  4  1  0
  4  5  1  0
  5  6  2  0
  6  7  1  0
  7  8  2  0
  8  9  1  0
  9 10  2  0
  9 11  1  0
 11 12  2  0
 12 13  1  0
 13 14  2  0
 14 15  1  0
 15 16  2  0
 16 17  1  0
 17 18  2  0
 18 19  1  0
 19 20  2  0
  2 21  1  0
 21 22  1  0
 22 23  2  0
 23 24  1  0
 24 25  1  0
 25 26  2  0
 26 27  1  0
 27 28  2  0
 28 29  1  0
 29 30  2  0
 10  5  1  0
 20 11  1  0
 19 14  1  0
 30 22  1  0
 30 25  1  0
M  END
>  <activity_comment>  (72) 
active

>  <activity_id>  (72) 
9515479

>  <activity_properties>  (72) 
[]

>  <assay_chembl_id>  (72) 
CHEMBL1964111

>  <assay_description>  (72) 
PUBCHEM_BIOASSAY: Navigating the Kinome. (Class of assay: other) Panel member name: CAMK2A

>  <assay_type>  (72) 
F

>  <bao_endpoint>  (72) 
BAO_0000192

>  <bao_format>  (72) 
BAO_0000019

>  <bao_label>  (72) 
assay format

>  <canonical_smiles>  (72) 
NC(COc1cncc(c1)c2ccc3cnccc3c2)Cc4c[nH]c5ccccc45

>  <data_validity_comment>  (72) 
nan

>  <data_validity_description>  (72) 
nan

>  <document_chembl_id>  (72) 
CHEMBL1201862

>  <document_journal>  (72) 
nan

>  <document_year>  (72) 
nan

>  <ligand_efficiency>  (72) 
nan

>  <molecule_pref_name>  (72) 
nan

>  <parent_molecule_chembl_id>  (72) 
CHEMBL1981133

>  <pchembl_value>  (72) 
6.4

>  <potential_duplicate>  (72) 
False

>  <qudt_units>  (72) 
http://www.openphacts.org/units/Nanomolar

>  <record_id>  (72) 
1584368

>  <relation>  (72) 
=

>  <src_id>  (72) 
7

>  <standard_flag>  (72) 
True

>  <standard_relation>  (72) 
=

>  <standard_text_value>  (72) 
nan

>  <standard_type>  (72) 
Ki

>  <standard_units>  (72) 
nM

>  <standard_upper_value>  (72) 
nan

>  <standard_value>  (72) 
398.11

>  <target_chembl_id>  (72) 
CHEMBL4147

>  <target_organism>  (72) 
Homo sapiens

>  <target_pref_name>  (72) 
CaM kinase II alpha

>  <target_tax_id>  (72) 
9606

>  <text_value>  (72) 
nan

>  <toid>  (72) 
nan

>  <type>  (72) 
pKi

>  <units>  (72) 
nan

>  <uo_units>  (72) 
UO_0000065

>  <upper_value>  (72) 
nan

>  <value>  (72) 
6.4

>  <SMILES>  (72) 
NC(COc1cncc(c1)c2ccc3cnccc3c2)Cc4c[nH]c5ccccc45

>  <NAME>  (72) 
CHEMBL1981133

>  <FILTER>  (72) 
OK

>  <MW>  (72) 
394.478

>  <LogP>  (72) 
4.7269

>  <HBD>  (72) 
2

>  <HBA>  (72) 
4

>  <TPSA>  (72) 
76.82

>  <Label>  (72) 
CAMK2A

$$$$
CHEMBL2007421
     RDKit          2D

 27 29  0  0  0  0  0  0  0  0999 V2000
   -0.6546  -10.1364    0.0000 C   0  0  0  0  0  0  0  0  0  0  0  0
   -0.8113   -8.6446    0.0000 C   0  0  0  0  0  0  0  0  0  0  0  0
   -2.1817   -8.0345    0.0000 C   0  0  0  0  0  0  0  0  0  0  0  0
    0.4022   -7.7629    0.0000 O   0  0  0  0  0  0  0  0  0  0  0  0
    0.2454   -6.2711    0.0000 C   0  0  0  0  0  0  0  0  0  0  0  0
    1.3601   -5.2674    0.0000 C   0  0  0  0  0  0  0  0  0  0  0  0
    0.7500   -3.8971    0.0000 C   0  0  0  0  0  0  0  0  0  0  0  0
    1.5000   -2.5981    0.0000 N   0  0  0  0  0  0  0  0  0  0  0  0
    0.7500   -1.2990    0.0000 C   0  0  0  0  0  0  0  0  0  0  0  0
    1.5000    0.0000    0.0000 N   0  0  0  0  0  0  0  0  0  0  0  0
    0.7500    1.2990    0.0000 C   0  0  0  0  0  0  0  0  0  0  0  0
    1.5000    2.5981    0.0000 N   0  0  0  0  0  0  0  0  0  0  0  0
    3.0000    2.5981    0.0000 C   0  0  0  0  0  0  0  0  0  0  0  0
    3.7500    3.8971    0.0000 C   0  0  0  0  0  0  0  0  0  0  0  0
    3.7500    1.2990    0.0000 C   0  0  0  0  0  0  0  0  0  0  0  0
    3.0000   -0.0000    0.0000 C   0  0  0  0  0  0  0  0  0  0  0  0
    3.7500   -1.2990    0.0000 C   0  0  0  0  0  0  0  0  0  0  0  0
    5.2500   -1.2990    0.0000 C   0  0  0  0  0  0  0  0  0  0  0  0
    6.0000   -2.5981    0.0000 F   0  0  0  0  0  0  0  0  0  0  0  0
    6.0000   -0.0000    0.0000 C   0  0  0  0  0  0  0  0  0  0  0  0
    5.2500    1.2990    0.0000 N   0  0  0  0  0  0  0  0  0  0  0  0
   -0.7500    1.2990    0.0000 N   0  0  0  0  0  0  0  0  0  0  0  0
   -1.5000    0.0000    0.0000 C   0  0  0  0  0  0  0  0  0  0  0  0
   -0.7500   -1.2990    0.0000 C   0  0  0  0  0  0  0  0  0  0  0  0
   -1.5000   -2.5981    0.0000 Cl  0  0  0  0  0  0  0  0  0  0  0  0
   -0.7418   -4.0539    0.0000 N   0  0  0  0  0  0  0  0  0  0  0  0
   -1.0537   -5.5211    0.0000 N   0  0  0  0  0  0  0  0  0  0  0  0
  1  2  1  0
  2  3  1  0
  2  4  1  0
  4  5  1  0
  5  6  2  0
  6  7  1  0
  7  8  1  0
  8  9  1  0
  9 10  2  0
 10 11  1  0
 11 12  1  0
 12 13  1  0
 13 14  1  0
 13 15  1  0
 15 16  2  0
 16 17  1  0
 17 18  2  0
 18 19  1  0
 18 20  1  0
 20 21  2  0
 11 22  2  0
 22 23  1  0
 23 24  2  0
 24 25  1  0
  7 26  2  0
 26 27  1  0
 27  5  1  0
 24  9  1  0
 21 15  1  0
M  END
>  <activity_comment>  (73) 
active

>  <activity_id>  (73) 
9515482

>  <activity_properties>  (73) 
[]

>  <assay_chembl_id>  (73) 
CHEMBL1964111

>  <assay_description>  (73) 
PUBCHEM_BIOASSAY: Navigating the Kinome. (Class of assay: other) Panel member name: CAMK2A

>  <assay_type>  (73) 
F

>  <bao_endpoint>  (73) 
BAO_0000192

>  <bao_format>  (73) 
BAO_0000019

>  <bao_label>  (73) 
assay format

>  <canonical_smiles>  (73) 
CC(C)Oc1cc(Nc2nc(NC(C)c3ccc(F)cn3)ncc2Cl)n[nH]1

>  <data_validity_comment>  (73) 
nan

>  <data_validity_description>  (73) 
nan

>  <document_chembl_id>  (73) 
CHEMBL1201862

>  <document_journal>  (73) 
nan

>  <document_year>  (73) 
nan

>  <ligand_efficiency>  (73) 
nan

>  <molecule_pref_name>  (73) 
nan

>  <parent_molecule_chembl_id>  (73) 
CHEMBL2007421

>  <pchembl_value>  (73) 
6.5

>  <potential_duplicate>  (73) 
False

>  <qudt_units>  (73) 
http://www.openphacts.org/units/Nanomolar

>  <record_id>  (73) 
1585539

>  <relation>  (73) 
=

>  <src_id>  (73) 
7

>  <standard_flag>  (73) 
True

>  <standard_relation>  (73) 
=

>  <standard_text_value>  (73) 
nan

>  <standard_type>  (73) 
Ki

>  <standard_units>  (73) 
nM

>  <standard_upper_value>  (73) 
nan

>  <standard_value>  (73) 
316.23

>  <target_chembl_id>  (73) 
CHEMBL4147

>  <target_organism>  (73) 
Homo sapiens

>  <target_pref_name>  (73) 
CaM kinase II alpha

>  <target_tax_id>  (73) 
9606

>  <text_value>  (73) 
nan

>  <toid>  (73) 
nan

>  <type>  (73) 
pKi

>  <units>  (73) 
nan

>  <uo_units>  (73) 
UO_0000065

>  <upper_value>  (73) 
nan

>  <value>  (73) 
6.5

>  <SMILES>  (73) 
CC(C)Oc1cc(Nc2nc(NC(C)c3ccc(F)cn3)ncc2Cl)n[nH]1

>  <NAME>  (73) 
CHEMBL2007421

>  <FILTER>  (73) 
OK

>  <MW>  (73) 
391.838

>  <LogP>  (73) 
4.0911

>  <HBD>  (73) 
3

>  <HBA>  (73) 
7

>  <TPSA>  (73) 
100.64

>  <Label>  (73) 
CAMK2A

$$$$
CHEMBL1969151
     RDKit          2D

 26 29  0  0  0  0  0  0  0  0999 V2000
   -3.6221    4.6871    0.0000 C   0  0  0  0  0  0  0  0  0  0  0  0
   -5.0487    4.2236    0.0000 N   0  0  0  0  0  0  0  0  0  0  0  0
   -6.1634    5.2273    0.0000 C   0  0  0  0  0  0  0  0  0  0  0  0
   -5.3605    2.7564    0.0000 C   0  0  0  0  0  0  0  0  0  0  0  0
   -4.2458    1.7527    0.0000 C   0  0  0  0  0  0  0  0  0  0  0  0
   -4.5577    0.2855    0.0000 C   0  0  0  0  0  0  0  0  0  0  0  0
   -5.9843   -0.1781    0.0000 C   0  0  0  0  0  0  0  0  0  0  0  0
   -7.0990    0.8256    0.0000 C   0  0  0  0  0  0  0  0  0  0  0  0
   -6.7871    2.2929    0.0000 C   0  0  0  0  0  0  0  0  0  0  0  0
   -6.2961   -1.6453    0.0000 N   0  0  0  0  0  0  0  0  0  0  0  0
   -5.1814   -2.6490    0.0000 C   0  0  0  0  0  0  0  0  0  0  0  0
   -5.4933   -4.1162    0.0000 N   0  0  0  0  0  0  0  0  0  0  0  0
   -4.3786   -5.1199    0.0000 C   0  0  0  0  0  0  0  0  0  0  0  0
   -4.6904   -6.5871    0.0000 Cl  0  0  0  0  0  0  0  0  0  0  0  0
   -2.9520   -4.6564    0.0000 C   0  0  0  0  0  0  0  0  0  0  0  0
   -2.6401   -3.1891    0.0000 C   0  0  0  0  0  0  0  0  0  0  0  0
   -3.7548   -2.1855    0.0000 N   0  0  0  0  0  0  0  0  0  0  0  0
   -1.2135   -2.7256    0.0000 C   0  0  0  0  0  0  0  0  0  0  0  0
    0.0000   -3.6073    0.0000 C   0  0  0  0  0  0  0  0  0  0  0  0
    1.2135   -2.7256    0.0000 N   0  0  0  0  0  0  0  0  0  0  0  0
    0.7500   -1.2990    0.0000 C   0  0  0  0  0  0  0  0  0  0  0  0
    1.5000    0.0000    0.0000 N   0  0  0  0  0  0  0  0  0  0  0  0
    0.7500    1.2990    0.0000 C   0  0  0  0  0  0  0  0  0  0  0  0
   -0.7500    1.2990    0.0000 C   0  0  0  0  0  0  0  0  0  0  0  0
   -1.5000    0.0000    0.0000 C   0  0  0  0  0  0  0  0  0  0  0  0
   -0.7500   -1.2990    0.0000 C   0  0  0  0  0  0  0  0  0  0  0  0
  1  2  1  0
  2  3  1  0
  2  4  1  0
  4  5  1  0
  5  6  1  0
  6  7  1  0
  7  8  1  0
  8  9  1  0
  7 10  1  0
 10 11  1  0
 11 12  2  0
 12 13  1  0
 13 14  1  0
 13 15  2  0
 15 16  1  0
 16 17  2  0
 16 18  1  0
 18 19  2  0
 19 20  1  0
 20 21  1  0
 21 22  2  0
 22 23  1  0
 23 24  2  0
 24 25  1  0
 25 26  2  0
  9  4  1  0
 17 11  1  0
 26 18  1  0
 26 21  1  0
M  END
>  <activity_comment>  (74) 
active

>  <activity_id>  (74) 
9515487

>  <activity_properties>  (74) 
[]

>  <assay_chembl_id>  (74) 
CHEMBL1964111

>  <assay_description>  (74) 
PUBCHEM_BIOASSAY: Navigating the Kinome. (Class of assay: other) Panel member name: CAMK2A

>  <assay_type>  (74) 
F

>  <bao_endpoint>  (74) 
BAO_0000192

>  <bao_format>  (74) 
BAO_0000019

>  <bao_label>  (74) 
assay format

>  <canonical_smiles>  (74) 
CN(C)C1CCC(CC1)Nc2nc(Cl)cc(n2)c3c[nH]c4ncccc34

>  <data_validity_comment>  (74) 
nan

>  <data_validity_description>  (74) 
nan

>  <document_chembl_id>  (74) 
CHEMBL1201862

>  <document_journal>  (74) 
nan

>  <document_year>  (74) 
nan

>  <ligand_efficiency>  (74) 
nan

>  <molecule_pref_name>  (74) 
nan

>  <parent_molecule_chembl_id>  (74) 
CHEMBL1969151

>  <pchembl_value>  (74) 
6.4

>  <potential_duplicate>  (74) 
False

>  <qudt_units>  (74) 
http://www.openphacts.org/units/Nanomolar

>  <record_id>  (74) 
1584081

>  <relation>  (74) 
=

>  <src_id>  (74) 
7

>  <standard_flag>  (74) 
True

>  <standard_relation>  (74) 
=

>  <standard_text_value>  (74) 
nan

>  <standard_type>  (74) 
Ki

>  <standard_units>  (74) 
nM

>  <standard_upper_value>  (74) 
nan

>  <standard_value>  (74) 
398.11

>  <target_chembl_id>  (74) 
CHEMBL4147

>  <target_organism>  (74) 
Homo sapiens

>  <target_pref_name>  (74) 
CaM kinase II alpha

>  <target_tax_id>  (74) 
9606

>  <text_value>  (74) 
nan

>  <toid>  (74) 
nan

>  <type>  (74) 
pKi

>  <units>  (74) 
nan

>  <uo_units>  (74) 
UO_0000065

>  <upper_value>  (74) 
nan

>  <value>  (74) 
6.4

>  <SMILES>  (74) 
CN(C)C1CCC(CC1)Nc2nc(Cl)cc(n2)c3c[nH]c4ncccc34

>  <NAME>  (74) 
CHEMBL1969151

>  <FILTER>  (74) 
OK

>  <MW>  (74) 
370.888

>  <LogP>  (74) 
3.958

>  <HBD>  (74) 
2

>  <HBA>  (74) 
5

>  <TPSA>  (74) 
69.73

>  <Label>  (74) 
CAMK2A

$$$$
CHEMBL1967252
     RDKit          2D

 16 18  0  0  0  0  0  0  0  0999 V2000
   -2.6401   -3.1891    0.0000 C   0  0  0  0  0  0  0  0  0  0  0  0
   -1.2135   -2.7256    0.0000 C   0  0  0  0  0  0  0  0  0  0  0  0
   -0.0000   -3.6073    0.0000 N   0  0  0  0  0  0  0  0  0  0  0  0
    1.2135   -2.7256    0.0000 N   0  0  0  0  0  0  0  0  0  0  0  0
    0.7500   -1.2990    0.0000 C   0  0  0  0  0  0  0  0  0  0  0  0
    1.5000    0.0000    0.0000 C   0  0  0  0  0  0  0  0  0  0  0  0
    0.7500    1.2990    0.0000 C   0  0  0  0  0  0  0  0  0  0  0  0
   -0.7500    1.2990    0.0000 C   0  0  0  0  0  0  0  0  0  0  0  0
   -1.5000    0.0000    0.0000 C   0  0  0  0  0  0  0  0  0  0  0  0
   -0.7500   -1.2990    0.0000 C   0  0  0  0  0  0  0  0  0  0  0  0
   -1.5000    2.5981    0.0000 C   0  0  0  0  0  0  0  0  0  0  0  0
   -0.7500    3.8971    0.0000 C   0  0  0  0  0  0  0  0  0  0  0  0
   -1.5000    5.1962    0.0000 C   0  0  0  0  0  0  0  0  0  0  0  0
   -3.0000    5.1962    0.0000 C   0  0  0  0  0  0  0  0  0  0  0  0
   -3.7500    3.8971    0.0000 N   0  0  0  0  0  0  0  0  0  0  0  0
   -3.0000    2.5981    0.0000 C   0  0  0  0  0  0  0  0  0  0  0  0
  1  2  1  0
  2  3  2  0
  3  4  1  0
  4  5  1  0
  5  6  2  0
  6  7  1  0
  7  8  2  0
  8  9  1  0
  9 10  2  0
  8 11  1  0
 11 12  2  0
 12 13  1  0
 13 14  2  0
 14 15  1  0
 15 16  2  0
 10  2  1  0
 10  5  1  0
 16 11  1  0
M  END
>  <activity_comment>  (75) 
active

>  <activity_id>  (75) 
9515488

>  <activity_properties>  (75) 
[]

>  <assay_chembl_id>  (75) 
CHEMBL1964111

>  <assay_description>  (75) 
PUBCHEM_BIOASSAY: Navigating the Kinome. (Class of assay: other) Panel member name: CAMK2A

>  <assay_type>  (75) 
F

>  <bao_endpoint>  (75) 
BAO_0000192

>  <bao_format>  (75) 
BAO_0000019

>  <bao_label>  (75) 
assay format

>  <canonical_smiles>  (75) 
Cc1n[nH]c2ccc(cc12)c3cccnc3

>  <data_validity_comment>  (75) 
nan

>  <data_validity_description>  (75) 
nan

>  <document_chembl_id>  (75) 
CHEMBL1201862

>  <document_journal>  (75) 
nan

>  <document_year>  (75) 
nan

>  <ligand_efficiency>  (75) 
nan

>  <molecule_pref_name>  (75) 
nan

>  <parent_molecule_chembl_id>  (75) 
CHEMBL1967252

>  <pchembl_value>  (75) 
4.9

>  <potential_duplicate>  (75) 
False

>  <qudt_units>  (75) 
http://www.openphacts.org/units/Nanomolar

>  <record_id>  (75) 
1584617

>  <relation>  (75) 
=

>  <src_id>  (75) 
7

>  <standard_flag>  (75) 
True

>  <standard_relation>  (75) 
=

>  <standard_text_value>  (75) 
nan

>  <standard_type>  (75) 
Ki

>  <standard_units>  (75) 
nM

>  <standard_upper_value>  (75) 
nan

>  <standard_value>  (75) 
12589.25

>  <target_chembl_id>  (75) 
CHEMBL4147

>  <target_organism>  (75) 
Homo sapiens

>  <target_pref_name>  (75) 
CaM kinase II alpha

>  <target_tax_id>  (75) 
9606

>  <text_value>  (75) 
nan

>  <toid>  (75) 
nan

>  <type>  (75) 
pKi

>  <units>  (75) 
nan

>  <uo_units>  (75) 
UO_0000065

>  <upper_value>  (75) 
nan

>  <value>  (75) 
4.9

>  <SMILES>  (75) 
Cc1n[nH]c2ccc(cc12)c3cccnc3

>  <NAME>  (75) 
CHEMBL1967252

>  <FILTER>  (75) 
OK

>  <MW>  (75) 
209.252

>  <LogP>  (75) 
2.93332

>  <HBD>  (75) 
1

>  <HBA>  (75) 
2

>  <TPSA>  (75) 
41.57

>  <Label>  (75) 
CAMK2A

$$$$
CHEMBL1993335
     RDKit          2D

 21 24  0  0  0  0  0  0  0  0999 V2000
   -2.6401   -3.1891    0.0000 C   0  0  0  0  0  0  0  0  0  0  0  0
   -1.2135   -2.7256    0.0000 N   0  0  0  0  0  0  0  0  0  0  0  0
   -0.0000   -3.6073    0.0000 C   0  0  0  0  0  0  0  0  0  0  0  0
    1.2135   -2.7256    0.0000 C   0  0  0  0  0  0  0  0  0  0  0  0
    2.6401   -3.1891    0.0000 C   0  0  0  0  0  0  0  0  0  0  0  0
    3.1036   -4.6157    0.0000 C   0  0  0  0  0  0  0  0  0  0  0  0
    4.6036   -4.6157    0.0000 C   0  0  0  0  0  0  0  0  0  0  0  0
    5.6073   -5.7305    0.0000 N   0  0  0  0  0  0  0  0  0  0  0  0
    7.0746   -5.4186    0.0000 C   0  0  0  0  0  0  0  0  0  0  0  0
    8.0782   -6.5333    0.0000 Br  0  0  0  0  0  0  0  0  0  0  0  0
    7.5381   -3.9920    0.0000 C   0  0  0  0  0  0  0  0  0  0  0  0
    6.5344   -2.8773    0.0000 N   0  0  0  0  0  0  0  0  0  0  0  0
    5.0672   -3.1891    0.0000 C   0  0  0  0  0  0  0  0  0  0  0  0
    3.8536   -2.3075    0.0000 N   0  0  0  0  0  0  0  0  0  0  0  0
    0.7500   -1.2990    0.0000 C   0  0  0  0  0  0  0  0  0  0  0  0
    1.5000    0.0000    0.0000 C   0  0  0  0  0  0  0  0  0  0  0  0
    0.7500    1.2990    0.0000 C   0  0  0  0  0  0  0  0  0  0  0  0
    1.5000    2.5981    0.0000 F   0  0  0  0  0  0  0  0  0  0  0  0
   -0.7500    1.2990    0.0000 C   0  0  0  0  0  0  0  0  0  0  0  0
   -1.5000    0.0000    0.0000 C   0  0  0  0  0  0  0  0  0  0  0  0
   -0.7500   -1.2990    0.0000 C   0  0  0  0  0  0  0  0  0  0  0  0
  1  2  1  0
  2  3  1  0
  3  4  2  0
  4  5  1  0
  5  6  2  0
  6  7  1  0
  7  8  2  0
  8  9  1  0
  9 10  1  0
  9 11  2  0
 11 12  1  0
 12 13  2  0
 13 14  1  0
  4 15  1  0
 15 16  2  0
 16 17  1  0
 17 18  1  0
 17 19  2  0
 19 20  1  0
 20 21  2  0
 21  2  1  0
 14  5  1  0
 13  7  1  0
 21 15  1  0
M  END
>  <activity_comment>  (76) 
active

>  <activity_id>  (76) 
9515489

>  <activity_properties>  (76) 
[]

>  <assay_chembl_id>  (76) 
CHEMBL1964111

>  <assay_description>  (76) 
PUBCHEM_BIOASSAY: Navigating the Kinome. (Class of assay: other) Panel member name: CAMK2A

>  <assay_type>  (76) 
F

>  <bao_endpoint>  (76) 
BAO_0000192

>  <bao_format>  (76) 
BAO_0000019

>  <bao_label>  (76) 
assay format

>  <canonical_smiles>  (76) 
Cn1cc(c2cc3nc(Br)cnc3[nH]2)c4cc(F)ccc14

>  <data_validity_comment>  (76) 
nan

>  <data_validity_description>  (76) 
nan

>  <document_chembl_id>  (76) 
CHEMBL1201862

>  <document_journal>  (76) 
nan

>  <document_year>  (76) 
nan

>  <ligand_efficiency>  (76) 
nan

>  <molecule_pref_name>  (76) 
nan

>  <parent_molecule_chembl_id>  (76) 
CHEMBL1993335

>  <pchembl_value>  (76) 
5.6

>  <potential_duplicate>  (76) 
False

>  <qudt_units>  (76) 
http://www.openphacts.org/units/Nanomolar

>  <record_id>  (76) 
1584744

>  <relation>  (76) 
=

>  <src_id>  (76) 
7

>  <standard_flag>  (76) 
True

>  <standard_relation>  (76) 
=

>  <standard_text_value>  (76) 
nan

>  <standard_type>  (76) 
Ki

>  <standard_units>  (76) 
nM

>  <standard_upper_value>  (76) 
nan

>  <standard_value>  (76) 
2511.89

>  <target_chembl_id>  (76) 
CHEMBL4147

>  <target_organism>  (76) 
Homo sapiens

>  <target_pref_name>  (76) 
CaM kinase II alpha

>  <target_tax_id>  (76) 
9606

>  <text_value>  (76) 
nan

>  <toid>  (76) 
nan

>  <type>  (76) 
pKi

>  <units>  (76) 
nan

>  <uo_units>  (76) 
UO_0000065

>  <upper_value>  (76) 
nan

>  <value>  (76) 
5.6

>  <SMILES>  (76) 
Cn1cc(c2cc3nc(Br)cnc3[nH]2)c4cc(F)ccc14

>  <NAME>  (76) 
CHEMBL1993335

>  <FILTER>  (76) 
OK

>  <MW>  (76) 
345.175

>  <LogP>  (76) 
4.0182

>  <HBD>  (76) 
1

>  <HBA>  (76) 
3

>  <TPSA>  (76) 
46.5

>  <Label>  (76) 
CAMK2A

$$$$
CHEMBL2007574
     RDKit          2D

 17 19  0  0  0  0  0  0  0  0999 V2000
   -4.6904   -6.5871    0.0000 N   0  0  0  0  0  0  0  0  0  0  0  0
   -4.3786   -5.1199    0.0000 C   0  0  0  0  0  0  0  0  0  0  0  0
   -5.4933   -4.1162    0.0000 N   0  0  0  0  0  0  0  0  0  0  0  0
   -5.1814   -2.6490    0.0000 C   0  0  0  0  0  0  0  0  0  0  0  0
   -6.2961   -1.6453    0.0000 Cl  0  0  0  0  0  0  0  0  0  0  0  0
   -3.7548   -2.1855    0.0000 C   0  0  0  0  0  0  0  0  0  0  0  0
   -2.6401   -3.1891    0.0000 C   0  0  0  0  0  0  0  0  0  0  0  0
   -2.9520   -4.6564    0.0000 N   0  0  0  0  0  0  0  0  0  0  0  0
   -1.2135   -2.7256    0.0000 C   0  0  0  0  0  0  0  0  0  0  0  0
    0.0000   -3.6073    0.0000 C   0  0  0  0  0  0  0  0  0  0  0  0
    1.2135   -2.7256    0.0000 N   0  0  0  0  0  0  0  0  0  0  0  0
    0.7500   -1.2990    0.0000 C   0  0  0  0  0  0  0  0  0  0  0  0
    1.5000    0.0000    0.0000 N   0  0  0  0  0  0  0  0  0  0  0  0
    0.7500    1.2990    0.0000 C   0  0  0  0  0  0  0  0  0  0  0  0
   -0.7500    1.2990    0.0000 C   0  0  0  0  0  0  0  0  0  0  0  0
   -1.5000    0.0000    0.0000 C   0  0  0  0  0  0  0  0  0  0  0  0
   -0.7500   -1.2990    0.0000 C   0  0  0  0  0  0  0  0  0  0  0  0
  1  2  1  0
  2  3  2  0
  3  4  1  0
  4  5  1  0
  4  6  2  0
  6  7  1  0
  7  8  2  0
  7  9  1  0
  9 10  2  0
 10 11  1  0
 11 12  1  0
 12 13  2  0
 13 14  1  0
 14 15  2  0
 15 16  1  0
 16 17  2  0
  8  2  1  0
 17  9  1  0
 17 12  1  0
M  END
>  <activity_comment>  (77) 
active

>  <activity_id>  (77) 
9515490

>  <activity_properties>  (77) 
[]

>  <assay_chembl_id>  (77) 
CHEMBL1964111

>  <assay_description>  (77) 
PUBCHEM_BIOASSAY: Navigating the Kinome. (Class of assay: other) Panel member name: CAMK2A

>  <assay_type>  (77) 
F

>  <bao_endpoint>  (77) 
BAO_0000192

>  <bao_format>  (77) 
BAO_0000019

>  <bao_label>  (77) 
assay format

>  <canonical_smiles>  (77) 
Nc1nc(Cl)cc(n1)c2c[nH]c3ncccc23

>  <data_validity_comment>  (77) 
nan

>  <data_validity_description>  (77) 
nan

>  <document_chembl_id>  (77) 
CHEMBL1201862

>  <document_journal>  (77) 
nan

>  <document_year>  (77) 
nan

>  <ligand_efficiency>  (77) 
nan

>  <molecule_pref_name>  (77) 
nan

>  <parent_molecule_chembl_id>  (77) 
CHEMBL2007574

>  <pchembl_value>  (77) 
5.7

>  <potential_duplicate>  (77) 
False

>  <qudt_units>  (77) 
http://www.openphacts.org/units/Nanomolar

>  <record_id>  (77) 
1584090

>  <relation>  (77) 
=

>  <src_id>  (77) 
7

>  <standard_flag>  (77) 
True

>  <standard_relation>  (77) 
=

>  <standard_text_value>  (77) 
nan

>  <standard_type>  (77) 
Ki

>  <standard_units>  (77) 
nM

>  <standard_upper_value>  (77) 
nan

>  <standard_value>  (77) 
1995.26

>  <target_chembl_id>  (77) 
CHEMBL4147

>  <target_organism>  (77) 
Homo sapiens

>  <target_pref_name>  (77) 
CaM kinase II alpha

>  <target_tax_id>  (77) 
9606

>  <text_value>  (77) 
nan

>  <toid>  (77) 
nan

>  <type>  (77) 
pKi

>  <units>  (77) 
nan

>  <uo_units>  (77) 
UO_0000065

>  <upper_value>  (77) 
nan

>  <value>  (77) 
5.7

>  <SMILES>  (77) 
Nc1nc(Cl)cc(n1)c2c[nH]c3ncccc23

>  <NAME>  (77) 
CHEMBL2007574

>  <FILTER>  (77) 
OK

>  <MW>  (77) 
245.673

>  <LogP>  (77) 
2.2555

>  <HBD>  (77) 
2

>  <HBA>  (77) 
4

>  <TPSA>  (77) 
80.48

>  <Label>  (77) 
CAMK2A

$$$$
CHEMBL2004637
     RDKit          2D

 37 40  0  0  0  0  0  0  0  0999 V2000
    3.4901   -4.4698    0.0000 C   0  0  0  0  0  0  0  0  0  0  0  0
    2.0229   -4.1579    0.0000 C   0  0  0  0  0  0  0  0  0  0  0  0
    1.0192   -5.2726    0.0000 N   0  0  0  0  0  0  0  0  0  0  0  0
    1.4827   -6.6992    0.0000 C   0  0  0  0  0  0  0  0  0  0  0  0
    2.9499   -7.0111    0.0000 C   0  0  0  0  0  0  0  0  0  0  0  0
    3.4134   -8.4377    0.0000 N   0  0  0  0  0  0  0  0  0  0  0  0
   -0.4481   -4.9608    0.0000 C   0  0  0  0  0  0  0  0  0  0  0  0
   -0.9116   -3.5342    0.0000 O   0  0  0  0  0  0  0  0  0  0  0  0
   -1.4518   -6.0755    0.0000 C   0  0  0  0  0  0  0  0  0  0  0  0
   -0.9882   -7.5021    0.0000 C   0  0  0  0  0  0  0  0  0  0  0  0
   -1.9919   -8.6168    0.0000 C   0  0  0  0  0  0  0  0  0  0  0  0
   -3.4591   -8.3049    0.0000 C   0  0  0  0  0  0  0  0  0  0  0  0
   -3.9227   -6.8783    0.0000 C   0  0  0  0  0  0  0  0  0  0  0  0
   -2.9190   -5.7636    0.0000 C   0  0  0  0  0  0  0  0  0  0  0  0
   -5.3899   -6.5665    0.0000 N   0  0  0  0  0  0  0  0  0  0  0  0
   -6.5046   -7.5702    0.0000 N   0  0  0  0  0  0  0  0  0  0  0  0
   -7.8037   -6.8202    0.0000 C   0  0  0  0  0  0  0  0  0  0  0  0
   -7.4918   -5.3529    0.0000 C   0  0  0  0  0  0  0  0  0  0  0  0
   -6.0000   -5.1962    0.0000 C   0  0  0  0  0  0  0  0  0  0  0  0
   -5.2500   -3.8971    0.0000 N   0  0  0  0  0  0  0  0  0  0  0  0
   -6.0000   -2.5981    0.0000 C   0  0  0  0  0  0  0  0  0  0  0  0
   -7.5000   -2.5981    0.0000 O   0  0  0  0  0  0  0  0  0  0  0  0
   -5.2500   -1.2990    0.0000 N   0  0  0  0  0  0  0  0  0  0  0  0
   -6.0000    0.0000    0.0000 C   0  0  0  0  0  0  0  0  0  0  0  0
   -7.5000    0.0000    0.0000 C   0  0  0  0  0  0  0  0  0  0  0  0
   -8.2500    1.2990    0.0000 C   0  0  0  0  0  0  0  0  0  0  0  0
   -7.5000    2.5981    0.0000 C   0  0  0  0  0  0  0  0  0  0  0  0
   -6.0000    2.5981    0.0000 C   0  0  0  0  0  0  0  0  0  0  0  0
   -5.2500    3.8971    0.0000 C   0  0  0  0  0  0  0  0  0  0  0  0
   -3.7500    3.8971    0.0000 C   0  0  0  0  0  0  0  0  0  0  0  0
   -3.0000    2.5981    0.0000 C   0  0  0  0  0  0  0  0  0  0  0  0
   -3.7500    1.2990    0.0000 C   0  0  0  0  0  0  0  0  0  0  0  0
   -5.2500    1.2990    0.0000 C   0  0  0  0  0  0  0  0  0  0  0  0
   -9.1740   -7.4303    0.0000 C   0  0  0  0  0  0  0  0  0  0  0  0
   -9.7841   -6.0600    0.0000 C   0  0  0  0  0  0  0  0  0  0  0  0
   -8.5639   -8.8006    0.0000 C   0  0  0  0  0  0  0  0  0  0  0  0
  -10.5443   -8.0404    0.0000 C   0  0  0  0  0  0  0  0  0  0  0  0
  1  2  1  0
  2  3  1  0
  3  4  1  0
  4  5  1  0
  5  6  1  0
  3  7  1  0
  7  8  2  0
  7  9  1  0
  9 10  2  0
 10 11  1  0
 11 12  2  0
 12 13  1  0
 13 14  2  0
 13 15  1  0
 15 16  1  0
 16 17  2  0
 17 18  1  0
 18 19  2  0
 19 20  1  0
 20 21  1  0
 21 22  2  0
 21 23  1  0
 23 24  1  0
 24 25  2  0
 25 26  1  0
 26 27  2  0
 27 28  1  0
 28 29  2  0
 29 30  1  0
 30 31  2  0
 31 32  1  0
 32 33  2  0
 17 34  1  0
 34 35  1  0
 34 36  1  0
 34 37  1  0
 14  9  1  0
 19 15  1  0
 33 24  1  0
 33 28  1  0
M  END
>  <activity_comment>  (78) 
active

>  <activity_id>  (78) 
9515492

>  <activity_properties>  (78) 
[]

>  <assay_chembl_id>  (78) 
CHEMBL1964111

>  <assay_description>  (78) 
PUBCHEM_BIOASSAY: Navigating the Kinome. (Class of assay: other) Panel member name: CAMK2A

>  <assay_type>  (78) 
F

>  <bao_endpoint>  (78) 
BAO_0000192

>  <bao_format>  (78) 
BAO_0000019

>  <bao_label>  (78) 
assay format

>  <canonical_smiles>  (78) 
CCN(CCN)C(=O)c1cccc(c1)n2nc(cc2NC(=O)Nc3cccc4ccccc34)C(C)(C)C

>  <data_validity_comment>  (78) 
nan

>  <data_validity_description>  (78) 
nan

>  <document_chembl_id>  (78) 
CHEMBL1201862

>  <document_journal>  (78) 
nan

>  <document_year>  (78) 
nan

>  <ligand_efficiency>  (78) 
nan

>  <molecule_pref_name>  (78) 
nan

>  <parent_molecule_chembl_id>  (78) 
CHEMBL2004637

>  <pchembl_value>  (78) 
5.5

>  <potential_duplicate>  (78) 
False

>  <qudt_units>  (78) 
http://www.openphacts.org/units/Nanomolar

>  <record_id>  (78) 
1584707

>  <relation>  (78) 
=

>  <src_id>  (78) 
7

>  <standard_flag>  (78) 
True

>  <standard_relation>  (78) 
=

>  <standard_text_value>  (78) 
nan

>  <standard_type>  (78) 
Ki

>  <standard_units>  (78) 
nM

>  <standard_upper_value>  (78) 
nan

>  <standard_value>  (78) 
3162.28

>  <target_chembl_id>  (78) 
CHEMBL4147

>  <target_organism>  (78) 
Homo sapiens

>  <target_pref_name>  (78) 
CaM kinase II alpha

>  <target_tax_id>  (78) 
9606

>  <text_value>  (78) 
nan

>  <toid>  (78) 
nan

>  <type>  (78) 
pKi

>  <units>  (78) 
nan

>  <uo_units>  (78) 
UO_0000065

>  <upper_value>  (78) 
nan

>  <value>  (78) 
5.5

>  <SMILES>  (78) 
CCN(CCN)C(=O)c1cccc(c1)n2nc(cc2NC(=O)Nc3cccc4ccccc34)C(C)(C)C

>  <NAME>  (78) 
CHEMBL2004637

>  <FILTER>  (78) 
OK

>  <MW>  (78) 
498.631

>  <LogP>  (78) 
5.3878

>  <HBD>  (78) 
3

>  <HBA>  (78) 
5

>  <TPSA>  (78) 
105.28

>  <Label>  (78) 
CAMK2A

$$$$
CHEMBL1980167
     RDKit          2D

 35 38  0  0  0  0  0  0  0  0999 V2000
    3.7500   -1.2990    0.0000 C   0  0  0  0  0  0  0  0  0  0  0  0
    3.0000    0.0000    0.0000 N   0  0  0  0  0  0  0  0  0  0  0  0
    3.7500    1.2990    0.0000 C   0  0  0  0  0  0  0  0  0  0  0  0
    1.5000    0.0000    0.0000 C   0  0  0  0  0  0  0  0  0  0  0  0
    0.7500   -1.2990    0.0000 C   0  0  0  0  0  0  0  0  0  0  0  0
   -0.7500   -1.2990    0.0000 C   0  0  0  0  0  0  0  0  0  0  0  0
   -1.5000    0.0000    0.0000 C   0  0  0  0  0  0  0  0  0  0  0  0
   -0.7500    1.2990    0.0000 C   0  0  0  0  0  0  0  0  0  0  0  0
    0.7500    1.2990    0.0000 C   0  0  0  0  0  0  0  0  0  0  0  0
   -3.0000    0.0000    0.0000 C   0  0  0  0  0  0  0  0  0  0  0  0
   -3.7500    1.2990    0.0000 C   0  0  0  0  0  0  0  0  0  0  0  0
   -5.2500    1.2990    0.0000 C   0  0  0  0  0  0  0  0  0  0  0  0
   -6.0000    0.0000    0.0000 N   0  0  0  0  0  0  0  0  0  0  0  0
   -5.2500   -1.2990    0.0000 C   0  0  0  0  0  0  0  0  0  0  0  0
   -6.0000   -2.5981    0.0000 N   0  0  0  0  0  0  0  0  0  0  0  0
   -7.5000   -2.5981    0.0000 S   0  0  0  0  0  0  0  0  0  0  0  0
   -7.5000   -1.0981    0.0000 O   0  0  0  0  0  0  0  0  0  0  0  0
   -7.5000   -4.0981    0.0000 O   0  0  0  0  0  0  0  0  0  0  0  0
   -9.0000   -2.5981    0.0000 C   0  0  0  0  0  0  0  0  0  0  0  0
   -9.7500   -1.2990    0.0000 C   0  0  0  0  0  0  0  0  0  0  0  0
  -11.2500   -1.2990    0.0000 C   0  0  0  0  0  0  0  0  0  0  0  0
  -12.0000   -2.5981    0.0000 C   0  0  0  0  0  0  0  0  0  0  0  0
  -13.5000   -2.5981    0.0000 N   0  0  0  0  0  0  0  0  0  0  0  0
  -11.2500   -3.8971    0.0000 C   0  0  0  0  0  0  0  0  0  0  0  0
   -9.7500   -3.8971    0.0000 C   0  0  0  0  0  0  0  0  0  0  0  0
   -3.7500   -1.2990    0.0000 N   0  0  0  0  0  0  0  0  0  0  0  0
   -6.0000    2.5981    0.0000 C   0  0  0  0  0  0  0  0  0  0  0  0
   -5.2500    3.8971    0.0000 C   0  0  0  0  0  0  0  0  0  0  0  0
   -6.0000    5.1962    0.0000 C   0  0  0  0  0  0  0  0  0  0  0  0
   -7.5000    5.1962    0.0000 C   0  0  0  0  0  0  0  0  0  0  0  0
   -8.2500    3.8971    0.0000 C   0  0  0  0  0  0  0  0  0  0  0  0
   -7.5000    2.5981    0.0000 C   0  0  0  0  0  0  0  0  0  0  0  0
   -8.2500    6.4952    0.0000 N   0  0  0  0  0  0  0  0  0  0  0  0
   -9.7500    6.4952    0.0000 O   0  0  0  0  0  0  0  0  0  0  0  0
   -7.5000    7.7942    0.0000 O   0  0  0  0  0  0  0  0  0  0  0  0
  1  2  1  0
  2  3  1  0
  2  4  1  0
  4  5  2  0
  5  6  1  0
  6  7  2  0
  7  8  1  0
  8  9  2  0
  7 10  1  0
 10 11  2  0
 11 12  1  0
 12 13  2  0
 13 14  1  0
 14 15  1  0
 15 16  1  0
 16 17  2  0
 16 18  2  0
 16 19  1  0
 19 20  2  0
 20 21  1  0
 21 22  2  0
 22 23  1  0
 22 24  1  0
 24 25  2  0
 14 26  2  0
 12 27  1  0
 27 28  2  0
 28 29  1  0
 29 30  2  0
 30 31  1  0
 31 32  2  0
 30 33  1  0
 33 34  2  0
 33 35  1  0
  9  4  1  0
 26 10  1  0
 25 19  1  0
 32 27  1  0
M  CHG  2  33   1  35  -1
M  END
>  <activity_comment>  (79) 
active

>  <activity_id>  (79) 
9515504

>  <activity_properties>  (79) 
[]

>  <assay_chembl_id>  (79) 
CHEMBL1964111

>  <assay_description>  (79) 
PUBCHEM_BIOASSAY: Navigating the Kinome. (Class of assay: other) Panel member name: CAMK2A

>  <assay_type>  (79) 
F

>  <bao_endpoint>  (79) 
BAO_0000192

>  <bao_format>  (79) 
BAO_0000019

>  <bao_label>  (79) 
assay format

>  <canonical_smiles>  (79) 
CN(C)c1ccc(cc1)c2cc(nc(NS(=O)(=O)c3ccc(N)cc3)n2)c4ccc(cc4)[N+](=O)[O-]

>  <data_validity_comment>  (79) 
nan

>  <data_validity_description>  (79) 
nan

>  <document_chembl_id>  (79) 
CHEMBL1201862

>  <document_journal>  (79) 
nan

>  <document_year>  (79) 
nan

>  <ligand_efficiency>  (79) 
nan

>  <molecule_pref_name>  (79) 
nan

>  <parent_molecule_chembl_id>  (79) 
CHEMBL1980167

>  <pchembl_value>  (79) 
5.7

>  <potential_duplicate>  (79) 
False

>  <qudt_units>  (79) 
http://www.openphacts.org/units/Nanomolar

>  <record_id>  (79) 
1584747

>  <relation>  (79) 
=

>  <src_id>  (79) 
7

>  <standard_flag>  (79) 
True

>  <standard_relation>  (79) 
=

>  <standard_text_value>  (79) 
nan

>  <standard_type>  (79) 
Ki

>  <standard_units>  (79) 
nM

>  <standard_upper_value>  (79) 
nan

>  <standard_value>  (79) 
1995.26

>  <target_chembl_id>  (79) 
CHEMBL4147

>  <target_organism>  (79) 
Homo sapiens

>  <target_pref_name>  (79) 
CaM kinase II alpha

>  <target_tax_id>  (79) 
9606

>  <text_value>  (79) 
nan

>  <toid>  (79) 
nan

>  <type>  (79) 
pKi

>  <units>  (79) 
nan

>  <uo_units>  (79) 
UO_0000065

>  <upper_value>  (79) 
nan

>  <value>  (79) 
5.7

>  <SMILES>  (79) 
CN(C)c1ccc(cc1)c2cc(nc(NS(=O)(=O)c3ccc(N)cc3)n2)c4ccc(cc4)[N+](=O)[O-]

>  <NAME>  (79) 
CHEMBL1980167

>  <FILTER>  (79) 
OK

>  <MW>  (79) 
490.545

>  <LogP>  (79) 
4.1678

>  <HBD>  (79) 
2

>  <HBA>  (79) 
8

>  <TPSA>  (79) 
144.35

>  <Label>  (79) 
CAMK2A

$$$$
CHEMBL1983980
     RDKit          2D

 38 43  0  0  0  0  0  0  0  0999 V2000
    0.0071  -11.5493    0.0000 O   0  0  0  0  0  0  0  0  0  0  0  0
    1.3774  -10.9392    0.0000 C   0  0  0  0  0  0  0  0  0  0  0  0
    1.5342   -9.4474    0.0000 C   0  0  0  0  0  0  0  0  0  0  0  0
    0.3207   -8.5658    0.0000 C   0  0  0  0  0  0  0  0  0  0  0  0
    0.4775   -7.0740    0.0000 C   0  0  0  0  0  0  0  0  0  0  0  0
    1.8478   -6.4639    0.0000 C   0  0  0  0  0  0  0  0  0  0  0  0
    3.0613   -7.3456    0.0000 C   0  0  0  0  0  0  0  0  0  0  0  0
    2.9046   -8.8373    0.0000 C   0  0  0  0  0  0  0  0  0  0  0  0
    2.0046   -4.9721    0.0000 C   0  0  0  0  0  0  0  0  0  0  0  0
    0.8899   -3.9684    0.0000 S   0  0  0  0  0  0  0  0  0  0  0  0
    1.5000   -2.5981    0.0000 C   0  0  0  0  0  0  0  0  0  0  0  0
    2.9918   -2.7549    0.0000 N   0  0  0  0  0  0  0  0  0  0  0  0
    3.3037   -4.2221    0.0000 C   0  0  0  0  0  0  0  0  0  0  0  0
    4.6740   -4.8322    0.0000 C   0  0  0  0  0  0  0  0  0  0  0  0
    4.8308   -6.3240    0.0000 O   0  0  0  0  0  0  0  0  0  0  0  0
    5.8875   -3.9505    0.0000 O   0  0  0  0  0  0  0  0  0  0  0  0
    0.7500   -1.2990    0.0000 N   0  0  0  0  0  0  0  0  0  0  0  0
    1.5000    0.0000    0.0000 C   0  0  0  0  0  0  0  0  0  0  0  0
    0.7500    1.2990    0.0000 C   0  0  0  0  0  0  0  0  0  0  0  0
   -0.7500    1.2990    0.0000 C   0  0  0  0  0  0  0  0  0  0  0  0
   -1.5000    2.5981    0.0000 C   0  0  0  0  0  0  0  0  0  0  0  0
   -3.0000    2.5981    0.0000 C   0  0  0  0  0  0  0  0  0  0  0  0
   -3.7500    1.2990    0.0000 C   0  0  0  0  0  0  0  0  0  0  0  0
   -3.0000    0.0000    0.0000 C   0  0  0  0  0  0  0  0  0  0  0  0
   -3.7500   -1.2990    0.0000 C   0  0  0  0  0  0  0  0  0  0  0  0
   -3.0000   -2.5981    0.0000 O   0  0  0  0  0  0  0  0  0  0  0  0
   -5.2500   -1.2990    0.0000 N   0  0  0  0  0  0  0  0  0  0  0  0
   -6.0000   -2.5981    0.0000 C   0  0  0  0  0  0  0  0  0  0  0  0
   -7.4918   -2.7549    0.0000 N   0  0  0  0  0  0  0  0  0  0  0  0
   -7.8037   -4.2221    0.0000 C   0  0  0  0  0  0  0  0  0  0  0  0
   -9.1027   -4.9721    0.0000 C   0  0  0  0  0  0  0  0  0  0  0  0
   -9.1027   -6.4721    0.0000 C   0  0  0  0  0  0  0  0  0  0  0  0
   -7.8037   -7.2221    0.0000 C   0  0  0  0  0  0  0  0  0  0  0  0
   -6.5046   -6.4721    0.0000 C   0  0  0  0  0  0  0  0  0  0  0  0
   -6.5046   -4.9721    0.0000 C   0  0  0  0  0  0  0  0  0  0  0  0
   -5.3899   -3.9684    0.0000 S   0  0  0  0  0  0  0  0  0  0  0  0
   -1.5000    0.0000    0.0000 C   0  0  0  0  0  0  0  0  0  0  0  0
   -0.7500   -1.2990    0.0000 C   0  0  0  0  0  0  0  0  0  0  0  0
  1  2  1  0
  2  3  1  0
  3  4  2  0
  4  5  1  0
  5  6  2  0
  6  7  1  0
  7  8  2  0
  6  9  1  0
  9 10  1  0
 10 11  1  0
 11 12  2  0
 12 13  1  0
 13 14  1  0
 14 15  2  0
 14 16  1  0
 11 17  1  0
 17 18  1  0
 18 19  1  0
 19 20  1  0
 20 21  2  0
 21 22  1  0
 22 23  2  0
 23 24  1  0
 24 25  1  0
 25 26  2  0
 25 27  1  0
 27 28  1  0
 28 29  2  0
 29 30  1  0
 30 31  2  0
 31 32  1  0
 32 33  2  0
 33 34  1  0
 34 35  2  0
 35 36  1  0
 24 37  2  0
 37 38  1  0
  8  3  1  0
 13  9  2  0
 38 17  1  0
 37 20  1  0
 36 28  1  0
 35 30  1  0
M  END
>  <activity_comment>  (80) 
active

>  <activity_id>  (80) 
9515513

>  <activity_properties>  (80) 
[]

>  <assay_chembl_id>  (80) 
CHEMBL1964111

>  <assay_description>  (80) 
PUBCHEM_BIOASSAY: Navigating the Kinome. (Class of assay: other) Panel member name: CAMK2A

>  <assay_type>  (80) 
F

>  <bao_endpoint>  (80) 
BAO_0000192

>  <bao_format>  (80) 
BAO_0000019

>  <bao_label>  (80) 
assay format

>  <canonical_smiles>  (80) 
OCc1ccc(cc1)c2sc(nc2C(=O)O)N3CCc4cccc(C(=O)Nc5nc6ccccc6s5)c4C3

>  <data_validity_comment>  (80) 
nan

>  <data_validity_description>  (80) 
nan

>  <document_chembl_id>  (80) 
CHEMBL1201862

>  <document_journal>  (80) 
nan

>  <document_year>  (80) 
nan

>  <ligand_efficiency>  (80) 
nan

>  <molecule_pref_name>  (80) 
nan

>  <parent_molecule_chembl_id>  (80) 
CHEMBL1983980

>  <pchembl_value>  (80) 
6.0

>  <potential_duplicate>  (80) 
False

>  <qudt_units>  (80) 
http://www.openphacts.org/units/Nanomolar

>  <record_id>  (80) 
1585442

>  <relation>  (80) 
=

>  <src_id>  (80) 
7

>  <standard_flag>  (80) 
True

>  <standard_relation>  (80) 
=

>  <standard_text_value>  (80) 
nan

>  <standard_type>  (80) 
Ki

>  <standard_units>  (80) 
nM

>  <standard_upper_value>  (80) 
nan

>  <standard_value>  (80) 
1000.0

>  <target_chembl_id>  (80) 
CHEMBL4147

>  <target_organism>  (80) 
Homo sapiens

>  <target_pref_name>  (80) 
CaM kinase II alpha

>  <target_tax_id>  (80) 
9606

>  <text_value>  (80) 
nan

>  <toid>  (80) 
nan

>  <type>  (80) 
pKi

>  <units>  (80) 
nan

>  <uo_units>  (80) 
UO_0000065

>  <upper_value>  (80) 
nan

>  <value>  (80) 
6.0

>  <SMILES>  (80) 
OCc1ccc(cc1)c2sc(nc2C(=O)O)N3CCc4cccc(C(=O)Nc5nc6ccccc6s5)c4C3

>  <NAME>  (80) 
CHEMBL1983980

>  <FILTER>  (80) 
OK

>  <MW>  (80) 
542.642

>  <LogP>  (80) 
5.4253

>  <HBD>  (80) 
3

>  <HBA>  (80) 
8

>  <TPSA>  (80) 
115.65

>  <Label>  (80) 
CAMK2A

$$$$
CHEMBL482538
     RDKit          2D

 15 17  0  0  0  0  0  0  0  0999 V2000
   -6.4268    0.3631    0.0000 C   0  0  0  0  0  0  0  0  0  0  0  0
   -6.1149    1.8303    0.0000 C   0  0  0  0  0  0  0  0  0  0  0  0
   -4.6883    2.2939    0.0000 C   0  0  0  0  0  0  0  0  0  0  0  0
   -3.5736    1.2902    0.0000 C   0  0  0  0  0  0  0  0  0  0  0  0
   -3.8855   -0.1771    0.0000 C   0  0  0  0  0  0  0  0  0  0  0  0
   -5.3120   -0.6406    0.0000 C   0  0  0  0  0  0  0  0  0  0  0  0
   -2.1470    1.7537    0.0000 C   0  0  0  0  0  0  0  0  0  0  0  0
   -1.8351    3.2209    0.0000 C   0  0  0  0  0  0  0  0  0  0  0  0
   -0.4086    3.6844    0.0000 C   0  0  0  0  0  0  0  0  0  0  0  0
    0.7062    2.6807    0.0000 N   0  0  0  0  0  0  0  0  0  0  0  0
    0.3943    1.2135    0.0000 C   0  0  0  0  0  0  0  0  0  0  0  0
    1.2760    0.0000    0.0000 N   0  0  0  0  0  0  0  0  0  0  0  0
    0.3943   -1.2135    0.0000 C   0  0  0  0  0  0  0  0  0  0  0  0
   -1.0323   -0.7500    0.0000 C   0  0  0  0  0  0  0  0  0  0  0  0
   -1.0323    0.7500    0.0000 C   0  0  0  0  0  0  0  0  0  0  0  0
  1  2  2  0
  2  3  1  0
  3  4  2  0
  4  5  1  0
  5  6  2  0
  4  7  1  0
  7  8  2  0
  8  9  1  0
  9 10  2  0
 10 11  1  0
 11 12  1  0
 12 13  1  0
 13 14  2  0
 14 15  1  0
  6  1  1  0
 15  7  1  0
 15 11  2  0
M  END
>  <activity_comment>  (81) 
active

>  <activity_id>  (81) 
9515515

>  <activity_properties>  (81) 
[]

>  <assay_chembl_id>  (81) 
CHEMBL1964111

>  <assay_description>  (81) 
PUBCHEM_BIOASSAY: Navigating the Kinome. (Class of assay: other) Panel member name: CAMK2A

>  <assay_type>  (81) 
F

>  <bao_endpoint>  (81) 
BAO_0000192

>  <bao_format>  (81) 
BAO_0000019

>  <bao_label>  (81) 
assay format

>  <canonical_smiles>  (81) 
c1ccc(cc1)c2ccnc3[nH]ccc23

>  <data_validity_comment>  (81) 
nan

>  <data_validity_description>  (81) 
nan

>  <document_chembl_id>  (81) 
CHEMBL1201862

>  <document_journal>  (81) 
nan

>  <document_year>  (81) 
nan

>  <ligand_efficiency>  (81) 
nan

>  <molecule_pref_name>  (81) 
nan

>  <parent_molecule_chembl_id>  (81) 
CHEMBL482538

>  <pchembl_value>  (81) 
5.0

>  <potential_duplicate>  (81) 
False

>  <qudt_units>  (81) 
http://www.openphacts.org/units/Nanomolar

>  <record_id>  (81) 
1584080

>  <relation>  (81) 
=

>  <src_id>  (81) 
7

>  <standard_flag>  (81) 
True

>  <standard_relation>  (81) 
=

>  <standard_text_value>  (81) 
nan

>  <standard_type>  (81) 
Ki

>  <standard_units>  (81) 
nM

>  <standard_upper_value>  (81) 
nan

>  <standard_value>  (81) 
10000.0

>  <target_chembl_id>  (81) 
CHEMBL4147

>  <target_organism>  (81) 
Homo sapiens

>  <target_pref_name>  (81) 
CaM kinase II alpha

>  <target_tax_id>  (81) 
9606

>  <text_value>  (81) 
nan

>  <toid>  (81) 
nan

>  <type>  (81) 
pKi

>  <units>  (81) 
nan

>  <uo_units>  (81) 
UO_0000065

>  <upper_value>  (81) 
nan

>  <value>  (81) 
5.0

>  <SMILES>  (81) 
c1ccc(cc1)c2ccnc3[nH]ccc23

>  <NAME>  (81) 
CHEMBL482538

>  <FILTER>  (81) 
OK

>  <MW>  (81) 
194.237

>  <LogP>  (81) 
3.2299

>  <HBD>  (81) 
1

>  <HBA>  (81) 
1

>  <TPSA>  (81) 
28.68

>  <Label>  (81) 
CAMK2A

$$$$
CHEMBL1984296
     RDKit          2D

 26 29  0  0  0  0  0  0  0  0999 V2000
   -8.2500   -6.4952    0.0000 C   0  0  0  0  0  0  0  0  0  0  0  0
   -7.5000   -5.1962    0.0000 C   0  0  0  0  0  0  0  0  0  0  0  0
   -8.2500   -3.8971    0.0000 C   0  0  0  0  0  0  0  0  0  0  0  0
   -7.5000   -2.5981    0.0000 C   0  0  0  0  0  0  0  0  0  0  0  0
   -6.0000   -2.5981    0.0000 C   0  0  0  0  0  0  0  0  0  0  0  0
   -5.2500   -1.2990    0.0000 C   0  0  0  0  0  0  0  0  0  0  0  0
   -5.2500   -3.8971    0.0000 C   0  0  0  0  0  0  0  0  0  0  0  0
   -3.7500   -3.8971    0.0000 N   0  0  0  0  0  0  0  0  0  0  0  0
   -3.0000   -2.5981    0.0000 C   0  0  0  0  0  0  0  0  0  0  0  0
   -3.7500   -1.2990    0.0000 O   0  0  0  0  0  0  0  0  0  0  0  0
   -1.5000   -2.5981    0.0000 C   0  0  0  0  0  0  0  0  0  0  0  0
   -0.7500   -3.8971    0.0000 C   0  0  0  0  0  0  0  0  0  0  0  0
    0.7500   -3.8971    0.0000 C   0  0  0  0  0  0  0  0  0  0  0  0
    1.5000   -2.5981    0.0000 N   0  0  0  0  0  0  0  0  0  0  0  0
    0.7500   -1.2990    0.0000 C   0  0  0  0  0  0  0  0  0  0  0  0
    1.5000    0.0000    0.0000 C   0  0  0  0  0  0  0  0  0  0  0  0
    0.7500    1.2990    0.0000 C   0  0  0  0  0  0  0  0  0  0  0  0
   -0.7500    1.2990    0.0000 C   0  0  0  0  0  0  0  0  0  0  0  0
   -1.5000    0.0000    0.0000 C   0  0  0  0  0  0  0  0  0  0  0  0
   -0.7500   -1.2990    0.0000 C   0  0  0  0  0  0  0  0  0  0  0  0
    1.5000   -5.1962    0.0000 C   0  0  0  0  0  0  0  0  0  0  0  0
    2.9918   -5.3529    0.0000 O   0  0  0  0  0  0  0  0  0  0  0  0
    3.3037   -6.8202    0.0000 C   0  0  0  0  0  0  0  0  0  0  0  0
    2.0046   -7.5702    0.0000 C   0  0  0  0  0  0  0  0  0  0  0  0
    0.8899   -6.5665    0.0000 C   0  0  0  0  0  0  0  0  0  0  0  0
   -6.0000   -5.1962    0.0000 C   0  0  0  0  0  0  0  0  0  0  0  0
  1  2  1  0
  2  3  2  0
  3  4  1  0
  4  5  2  0
  5  6  1  0
  5  7  1  0
  7  8  1  0
  8  9  1  0
  9 10  2  0
  9 11  1  0
 11 12  2  0
 12 13  1  0
 13 14  2  0
 14 15  1  0
 15 16  2  0
 16 17  1  0
 17 18  2  0
 18 19  1  0
 19 20  2  0
 13 21  1  0
 21 22  1  0
 22 23  1  0
 23 24  2  0
 24 25  1  0
  7 26  2  0
 26  2  1  0
 20 11  1  0
 20 15  1  0
 25 21  2  0
M  END
>  <activity_comment>  (82) 
active

>  <activity_id>  (82) 
9515517

>  <activity_properties>  (82) 
[]

>  <assay_chembl_id>  (82) 
CHEMBL1964111

>  <assay_description>  (82) 
PUBCHEM_BIOASSAY: Navigating the Kinome. (Class of assay: other) Panel member name: CAMK2A

>  <assay_type>  (82) 
F

>  <bao_endpoint>  (82) 
BAO_0000192

>  <bao_format>  (82) 
BAO_0000019

>  <bao_label>  (82) 
assay format

>  <canonical_smiles>  (82) 
Cc1ccc(C)c(NC(=O)c2cc(nc3ccccc23)c4occc4)c1

>  <data_validity_comment>  (82) 
nan

>  <data_validity_description>  (82) 
nan

>  <document_chembl_id>  (82) 
CHEMBL1201862

>  <document_journal>  (82) 
nan

>  <document_year>  (82) 
nan

>  <ligand_efficiency>  (82) 
nan

>  <molecule_pref_name>  (82) 
nan

>  <parent_molecule_chembl_id>  (82) 
CHEMBL1984296

>  <pchembl_value>  (82) 
5.5

>  <potential_duplicate>  (82) 
False

>  <qudt_units>  (82) 
http://www.openphacts.org/units/Nanomolar

>  <record_id>  (82) 
1585199

>  <relation>  (82) 
=

>  <src_id>  (82) 
7

>  <standard_flag>  (82) 
True

>  <standard_relation>  (82) 
=

>  <standard_text_value>  (82) 
nan

>  <standard_type>  (82) 
Ki

>  <standard_units>  (82) 
nM

>  <standard_upper_value>  (82) 
nan

>  <standard_value>  (82) 
3162.28

>  <target_chembl_id>  (82) 
CHEMBL4147

>  <target_organism>  (82) 
Homo sapiens

>  <target_pref_name>  (82) 
CaM kinase II alpha

>  <target_tax_id>  (82) 
9606

>  <text_value>  (82) 
nan

>  <toid>  (82) 
nan

>  <type>  (82) 
pKi

>  <units>  (82) 
nan

>  <uo_units>  (82) 
UO_0000065

>  <upper_value>  (82) 
nan

>  <value>  (82) 
5.5

>  <SMILES>  (82) 
Cc1ccc(C)c(NC(=O)c2cc(nc3ccccc23)c4occc4)c1

>  <NAME>  (82) 
CHEMBL1984296

>  <FILTER>  (82) 
OK

>  <MW>  (82) 
342.398

>  <LogP>  (82) 
5.36394

>  <HBD>  (82) 
1

>  <HBA>  (82) 
3

>  <TPSA>  (82) 
55.13

>  <Label>  (82) 
CAMK2A

$$$$
CHEMBL1964718
     RDKit          2D

 12 13  0  0  0  0  0  0  0  0999 V2000
    3.0000    0.0000    0.0000 C   0  0  0  0  0  0  0  0  0  0  0  0
    1.5000    0.0000    0.0000 C   0  0  0  0  0  0  0  0  0  0  0  0
    0.7500   -1.2990    0.0000 C   0  0  0  0  0  0  0  0  0  0  0  0
   -0.7500   -1.2990    0.0000 N   0  0  0  0  0  0  0  0  0  0  0  0
   -1.5000   -2.5981    0.0000 C   0  0  0  0  0  0  0  0  0  0  0  0
   -3.0000   -2.5981    0.0000 C   0  0  0  0  0  0  0  0  0  0  0  0
   -3.7500   -3.8971    0.0000 O   0  0  0  0  0  0  0  0  0  0  0  0
   -3.7500   -1.2990    0.0000 N   0  0  0  0  0  0  0  0  0  0  0  0
   -3.0000    0.0000    0.0000 N   0  0  0  0  0  0  0  0  0  0  0  0
   -1.5000    0.0000    0.0000 C   0  0  0  0  0  0  0  0  0  0  0  0
   -0.7500    1.2990    0.0000 C   0  0  0  0  0  0  0  0  0  0  0  0
    0.7500    1.2990    0.0000 C   0  0  0  0  0  0  0  0  0  0  0  0
  1  2  1  0
  2  3  2  0
  3  4  1  0
  4  5  1  0
  5  6  1  0
  6  7  2  0
  6  8  1  0
  8  9  1  0
  9 10  2  0
 10 11  1  0
 11 12  2  0
 12  2  1  0
 10  4  1  0
M  END
>  <activity_comment>  (83) 
active

>  <activity_id>  (83) 
9515522

>  <activity_properties>  (83) 
[]

>  <assay_chembl_id>  (83) 
CHEMBL1964111

>  <assay_description>  (83) 
PUBCHEM_BIOASSAY: Navigating the Kinome. (Class of assay: other) Panel member name: CAMK2A

>  <assay_type>  (83) 
F

>  <bao_endpoint>  (83) 
BAO_0000192

>  <bao_format>  (83) 
BAO_0000019

>  <bao_label>  (83) 
assay format

>  <canonical_smiles>  (83) 
CC1=CN2CC(=O)NN=C2C=C1

>  <data_validity_comment>  (83) 
nan

>  <data_validity_description>  (83) 
nan

>  <document_chembl_id>  (83) 
CHEMBL1201862

>  <document_journal>  (83) 
nan

>  <document_year>  (83) 
nan

>  <ligand_efficiency>  (83) 
nan

>  <molecule_pref_name>  (83) 
nan

>  <parent_molecule_chembl_id>  (83) 
CHEMBL1964718

>  <pchembl_value>  (83) 
4.2

>  <potential_duplicate>  (83) 
False

>  <qudt_units>  (83) 
http://www.openphacts.org/units/Nanomolar

>  <record_id>  (83) 
1585401

>  <relation>  (83) 
=

>  <src_id>  (83) 
7

>  <standard_flag>  (83) 
True

>  <standard_relation>  (83) 
=

>  <standard_text_value>  (83) 
nan

>  <standard_type>  (83) 
Ki

>  <standard_units>  (83) 
nM

>  <standard_upper_value>  (83) 
nan

>  <standard_value>  (83) 
63095.73

>  <target_chembl_id>  (83) 
CHEMBL4147

>  <target_organism>  (83) 
Homo sapiens

>  <target_pref_name>  (83) 
CaM kinase II alpha

>  <target_tax_id>  (83) 
9606

>  <text_value>  (83) 
nan

>  <toid>  (83) 
nan

>  <type>  (83) 
pKi

>  <units>  (83) 
nan

>  <uo_units>  (83) 
UO_0000065

>  <upper_value>  (83) 
nan

>  <value>  (83) 
4.2

>  <SMILES>  (83) 
CC1=CN2CC(=O)NN=C2C=C1

>  <NAME>  (83) 
CHEMBL1964718

>  <FILTER>  (83) 
OK

>  <MW>  (83) 
163.18

>  <LogP>  (83) 
0.2053

>  <HBD>  (83) 
1

>  <HBA>  (83) 
3

>  <TPSA>  (83) 
44.7

>  <Label>  (83) 
CAMK2A

$$$$
CHEMBL1993661
     RDKit          2D

 32 34  0  0  0  0  0  0  0  0999 V2000
   -3.7500    3.8971    0.0000 C   0  0  0  0  0  0  0  0  0  0  0  0
   -2.2500    3.8971    0.0000 N   0  0  0  0  0  0  0  0  0  0  0  0
   -1.5000    2.5981    0.0000 S   0  0  0  0  0  0  0  0  0  0  0  0
   -2.7990    1.8481    0.0000 O   0  0  0  0  0  0  0  0  0  0  0  0
   -0.2010    3.3481    0.0000 O   0  0  0  0  0  0  0  0  0  0  0  0
   -0.7500    1.2990    0.0000 C   0  0  0  0  0  0  0  0  0  0  0  0
   -1.5000   -0.0000    0.0000 C   0  0  0  0  0  0  0  0  0  0  0  0
   -0.7500   -1.2990    0.0000 C   0  0  0  0  0  0  0  0  0  0  0  0
    0.7500   -1.2990    0.0000 C   0  0  0  0  0  0  0  0  0  0  0  0
    1.5000   -0.0000    0.0000 C   0  0  0  0  0  0  0  0  0  0  0  0
    0.7500    1.2990    0.0000 C   0  0  0  0  0  0  0  0  0  0  0  0
    1.5000    2.5981    0.0000 N   0  0  0  0  0  0  0  0  0  0  0  0
    3.0000    2.5981    0.0000 C   0  0  0  0  0  0  0  0  0  0  0  0
    3.7500    1.2990    0.0000 N   0  0  0  0  0  0  0  0  0  0  0  0
    5.2500    1.2990    0.0000 C   0  0  0  0  0  0  0  0  0  0  0  0
    6.0000   -0.0000    0.0000 N   0  0  0  0  0  0  0  0  0  0  0  0
    7.5000   -0.0000    0.0000 C   0  0  0  0  0  0  0  0  0  0  0  0
    8.2500   -1.2990    0.0000 C   0  0  0  0  0  0  0  0  0  0  0  0
    9.7500   -1.2990    0.0000 C   0  0  0  0  0  0  0  0  0  0  0  0
   10.5000   -2.5981    0.0000 O   0  0  0  0  0  0  0  0  0  0  0  0
    9.7500   -3.8971    0.0000 C   0  0  0  0  0  0  0  0  0  0  0  0
   10.5000   -0.0000    0.0000 C   0  0  0  0  0  0  0  0  0  0  0  0
   12.0000    0.0000    0.0000 O   0  0  0  0  0  0  0  0  0  0  0  0
   12.7500    1.2990    0.0000 C   0  0  0  0  0  0  0  0  0  0  0  0
    9.7500    1.2990    0.0000 C   0  0  0  0  0  0  0  0  0  0  0  0
   10.5000    2.5981    0.0000 O   0  0  0  0  0  0  0  0  0  0  0  0
    9.7500    3.8971    0.0000 C   0  0  0  0  0  0  0  0  0  0  0  0
    8.2500    1.2990    0.0000 C   0  0  0  0  0  0  0  0  0  0  0  0
    6.0000    2.5981    0.0000 N   0  0  0  0  0  0  0  0  0  0  0  0
    5.2500    3.8971    0.0000 C   0  0  0  0  0  0  0  0  0  0  0  0
    3.7500    3.8971    0.0000 C   0  0  0  0  0  0  0  0  0  0  0  0
    3.0000    5.1962    0.0000 Cl  0  0  0  0  0  0  0  0  0  0  0  0
  1  2  1  0
  2  3  1  0
  3  4  2  0
  3  5  2  0
  3  6  1  0
  6  7  2  0
  7  8  1  0
  8  9  2  0
  9 10  1  0
 10 11  2  0
 11 12  1  0
 12 13  1  0
 13 14  2  0
 14 15  1  0
 15 16  1  0
 16 17  1  0
 17 18  2  0
 18 19  1  0
 19 20  1  0
 20 21  1  0
 19 22  2  0
 22 23  1  0
 23 24  1  0
 22 25  1  0
 25 26  1  0
 26 27  1  0
 25 28  2  0
 15 29  2  0
 29 30  1  0
 30 31  2  0
 31 32  1  0
 11  6  1  0
 31 13  1  0
 28 17  1  0
M  END
>  <activity_comment>  (84) 
active

>  <activity_id>  (84) 
9515523

>  <activity_properties>  (84) 
[]

>  <assay_chembl_id>  (84) 
CHEMBL1964111

>  <assay_description>  (84) 
PUBCHEM_BIOASSAY: Navigating the Kinome. (Class of assay: other) Panel member name: CAMK2A

>  <assay_type>  (84) 
F

>  <bao_endpoint>  (84) 
BAO_0000192

>  <bao_format>  (84) 
BAO_0000019

>  <bao_label>  (84) 
assay format

>  <canonical_smiles>  (84) 
CNS(=O)(=O)c1ccccc1Nc2nc(Nc3cc(OC)c(OC)c(OC)c3)ncc2Cl

>  <data_validity_comment>  (84) 
nan

>  <data_validity_description>  (84) 
nan

>  <document_chembl_id>  (84) 
CHEMBL1201862

>  <document_journal>  (84) 
nan

>  <document_year>  (84) 
nan

>  <ligand_efficiency>  (84) 
nan

>  <molecule_pref_name>  (84) 
nan

>  <parent_molecule_chembl_id>  (84) 
CHEMBL1993661

>  <pchembl_value>  (84) 
6.2

>  <potential_duplicate>  (84) 
False

>  <qudt_units>  (84) 
http://www.openphacts.org/units/Nanomolar

>  <record_id>  (84) 
1584473

>  <relation>  (84) 
=

>  <src_id>  (84) 
7

>  <standard_flag>  (84) 
True

>  <standard_relation>  (84) 
=

>  <standard_text_value>  (84) 
nan

>  <standard_type>  (84) 
Ki

>  <standard_units>  (84) 
nM

>  <standard_upper_value>  (84) 
nan

>  <standard_value>  (84) 
630.96

>  <target_chembl_id>  (84) 
CHEMBL4147

>  <target_organism>  (84) 
Homo sapiens

>  <target_pref_name>  (84) 
CaM kinase II alpha

>  <target_tax_id>  (84) 
9606

>  <text_value>  (84) 
nan

>  <toid>  (84) 
nan

>  <type>  (84) 
pKi

>  <units>  (84) 
nan

>  <uo_units>  (84) 
UO_0000065

>  <upper_value>  (84) 
nan

>  <value>  (84) 
6.2

>  <SMILES>  (84) 
CNS(=O)(=O)c1ccccc1Nc2nc(Nc3cc(OC)c(OC)c(OC)c3)ncc2Cl

>  <NAME>  (84) 
CHEMBL1993661

>  <FILTER>  (84) 
OK

>  <MW>  (84) 
479.946

>  <LogP>  (84) 
3.5511

>  <HBD>  (84) 
3

>  <HBA>  (84) 
9

>  <TPSA>  (84) 
123.7

>  <Label>  (84) 
CAMK2A

$$$$
CHEMBL546797
     RDKit          2D

 21 24  0  0  0  0  0  0  0  0999 V2000
    1.2990   -7.3573    0.0000 O   0  0  0  0  0  0  0  0  0  0  0  0
    1.2990   -5.8573    0.0000 N   0  0  0  0  0  0  0  0  0  0  0  0
   -0.0000   -5.1073    0.0000 C   0  0  0  0  0  0  0  0  0  0  0  0
   -0.0000   -3.6073    0.0000 C   0  0  0  0  0  0  0  0  0  0  0  0
    1.2135   -2.7256    0.0000 N   0  0  0  0  0  0  0  0  0  0  0  0
    0.7500   -1.2990    0.0000 C   0  0  0  0  0  0  0  0  0  0  0  0
    1.5000    0.0000    0.0000 C   0  0  0  0  0  0  0  0  0  0  0  0
    0.7500    1.2990    0.0000 C   0  0  0  0  0  0  0  0  0  0  0  0
   -0.7500    1.2990    0.0000 C   0  0  0  0  0  0  0  0  0  0  0  0
   -1.5000    0.0000    0.0000 C   0  0  0  0  0  0  0  0  0  0  0  0
   -0.7500   -1.2990    0.0000 C   0  0  0  0  0  0  0  0  0  0  0  0
   -1.2135   -2.7256    0.0000 N   0  0  0  0  0  0  0  0  0  0  0  0
   -1.2990   -5.8573    0.0000 C   0  0  0  0  0  0  0  0  0  0  0  0
   -2.6694   -5.2472    0.0000 N   0  0  0  0  0  0  0  0  0  0  0  0
   -3.6731   -6.3619    0.0000 C   0  0  0  0  0  0  0  0  0  0  0  0
   -5.1731   -6.3619    0.0000 C   0  0  0  0  0  0  0  0  0  0  0  0
   -5.9231   -7.6610    0.0000 C   0  0  0  0  0  0  0  0  0  0  0  0
   -5.1731   -8.9600    0.0000 C   0  0  0  0  0  0  0  0  0  0  0  0
   -3.6731   -8.9600    0.0000 C   0  0  0  0  0  0  0  0  0  0  0  0
   -2.9231   -7.6610    0.0000 C   0  0  0  0  0  0  0  0  0  0  0  0
   -1.4558   -7.3491    0.0000 N   0  0  0  0  0  0  0  0  0  0  0  0
  1  2  1  0
  2  3  2  3
  3  4  1  0
  4  5  2  0
  5  6  1  0
  6  7  2  0
  7  8  1  0
  8  9  2  0
  9 10  1  0
 10 11  2  0
 11 12  1  0
  3 13  1  0
 13 14  2  0
 14 15  1  0
 15 16  2  0
 16 17  1  0
 17 18  2  0
 18 19  1  0
 19 20  2  0
 20 21  1  0
 12  4  1  0
 11  6  1  0
 21 13  1  0
 20 15  1  0
M  END
>  <activity_comment>  (85) 
active

>  <activity_id>  (85) 
9515528

>  <activity_properties>  (85) 
[]

>  <assay_chembl_id>  (85) 
CHEMBL1964111

>  <assay_description>  (85) 
PUBCHEM_BIOASSAY: Navigating the Kinome. (Class of assay: other) Panel member name: CAMK2A

>  <assay_type>  (85) 
F

>  <bao_endpoint>  (85) 
BAO_0000192

>  <bao_format>  (85) 
BAO_0000019

>  <bao_label>  (85) 
assay format

>  <canonical_smiles>  (85) 
ON=C(c1nc2ccccc2[nH]1)c3nc4ccccc4[nH]3

>  <data_validity_comment>  (85) 
nan

>  <data_validity_description>  (85) 
nan

>  <document_chembl_id>  (85) 
CHEMBL1201862

>  <document_journal>  (85) 
nan

>  <document_year>  (85) 
nan

>  <ligand_efficiency>  (85) 
nan

>  <molecule_pref_name>  (85) 
nan

>  <parent_molecule_chembl_id>  (85) 
CHEMBL546797

>  <pchembl_value>  (85) 
5.5

>  <potential_duplicate>  (85) 
False

>  <qudt_units>  (85) 
http://www.openphacts.org/units/Nanomolar

>  <record_id>  (85) 
1584807

>  <relation>  (85) 
=

>  <src_id>  (85) 
7

>  <standard_flag>  (85) 
True

>  <standard_relation>  (85) 
=

>  <standard_text_value>  (85) 
nan

>  <standard_type>  (85) 
Ki

>  <standard_units>  (85) 
nM

>  <standard_upper_value>  (85) 
nan

>  <standard_value>  (85) 
3162.28

>  <target_chembl_id>  (85) 
CHEMBL4147

>  <target_organism>  (85) 
Homo sapiens

>  <target_pref_name>  (85) 
CaM kinase II alpha

>  <target_tax_id>  (85) 
9606

>  <text_value>  (85) 
nan

>  <toid>  (85) 
nan

>  <type>  (85) 
pKi

>  <units>  (85) 
nan

>  <uo_units>  (85) 
UO_0000065

>  <upper_value>  (85) 
nan

>  <value>  (85) 
5.5

>  <SMILES>  (85) 
ON=C(c1nc2ccccc2[nH]1)c3nc4ccccc4[nH]3

>  <NAME>  (85) 
CHEMBL546797

>  <FILTER>  (85) 
OK

>  <MW>  (85) 
277.287

>  <LogP>  (85) 
2.6658

>  <HBD>  (85) 
3

>  <HBA>  (85) 
4

>  <TPSA>  (85) 
89.95

>  <Label>  (85) 
CAMK2A

$$$$
