CHEMBL509032
     RDKit          2D

 42 46  0  0  0  0  0  0  0  0999 V2000
    3.7500   -1.2990    0.0000 C   0  0  0  0  0  0  0  0  0  0  0  0
    3.0000    0.0000    0.0000 O   0  0  0  0  0  0  0  0  0  0  0  0
    1.5000    0.0000    0.0000 C   0  0  0  0  0  0  0  0  0  0  0  0
    0.7500   -1.2990    0.0000 C   0  0  0  0  0  0  0  0  0  0  0  0
   -0.7500   -1.2990    0.0000 C   0  0  0  0  0  0  0  0  0  0  0  0
   -1.5000    0.0000    0.0000 C   0  0  0  0  0  0  0  0  0  0  0  0
   -0.7500    1.2990    0.0000 C   0  0  0  0  0  0  0  0  0  0  0  0
    0.7500    1.2990    0.0000 C   0  0  0  0  0  0  0  0  0  0  0  0
    1.5000    2.5981    0.0000 N   0  0  0  0  0  0  0  0  0  0  0  0
    3.0000    2.5981    0.0000 C   0  0  0  0  0  0  0  0  0  0  0  0
    3.7500    1.2990    0.0000 N   0  0  0  0  0  0  0  0  0  0  0  0
    5.2500    1.2990    0.0000 C   0  0  0  0  0  0  0  0  0  0  0  0
    6.0000    2.5981    0.0000 C   0  0  0  0  0  0  0  0  0  0  0  0
    7.5000    2.5981    0.0000 Cl  0  0  0  0  0  0  0  0  0  0  0  0
    5.2500    3.8971    0.0000 C   0  0  0  0  0  0  0  0  0  0  0  0
    6.0000    5.1962    0.0000 N   0  0  0  0  0  0  0  0  0  0  0  0
    5.2500    6.4952    0.0000 C   0  0  0  0  0  0  0  0  0  0  0  0
    3.7500    6.4952    0.0000 C   0  0  0  0  0  0  0  0  0  0  0  0
    3.0000    7.7942    0.0000 C   0  0  0  0  0  0  0  0  0  0  0  0
    3.7500    9.0933    0.0000 C   0  0  0  0  0  0  0  0  0  0  0  0
    5.2500    9.0933    0.0000 C   0  0  0  0  0  0  0  0  0  0  0  0
    6.0000    7.7942    0.0000 C   0  0  0  0  0  0  0  0  0  0  0  0
    7.5000    7.7942    0.0000 S   0  0  0  0  0  0  0  0  0  0  0  0
    7.5000    6.2942    0.0000 O   0  0  0  0  0  0  0  0  0  0  0  0
    7.5000    9.2942    0.0000 O   0  0  0  0  0  0  0  0  0  0  0  0
    9.0000    7.7942    0.0000 C   0  0  0  0  0  0  0  0  0  0  0  0
    9.7500    9.0933    0.0000 C   0  0  0  0  0  0  0  0  0  0  0  0
    9.7500    6.4952    0.0000 C   0  0  0  0  0  0  0  0  0  0  0  0
    3.7500    3.8971    0.0000 N   0  0  0  0  0  0  0  0  0  0  0  0
   -1.5000   -2.5981    0.0000 N   0  0  0  0  0  0  0  0  0  0  0  0
   -3.0000   -2.5981    0.0000 C   0  0  0  0  0  0  0  0  0  0  0  0
   -3.7500   -3.8971    0.0000 C   0  0  0  0  0  0  0  0  0  0  0  0
   -3.0000   -5.1962    0.0000 C   0  0  0  0  0  0  0  0  0  0  0  0
   -1.5000   -5.1962    0.0000 C   0  0  0  0  0  0  0  0  0  0  0  0
   -0.7500   -3.8971    0.0000 C   0  0  0  0  0  0  0  0  0  0  0  0
   -3.7500   -6.4952    0.0000 N   0  0  0  0  0  0  0  0  0  0  0  0
   -5.2500   -6.4952    0.0000 C   0  0  0  0  0  0  0  0  0  0  0  0
   -6.0000   -7.7942    0.0000 C   0  0  0  0  0  0  0  0  0  0  0  0
   -5.2500   -9.0933    0.0000 N   0  0  0  0  0  0  0  0  0  0  0  0
   -6.0000  -10.3923    0.0000 C   0  0  0  0  0  0  0  0  0  0  0  0
   -3.7500   -9.0933    0.0000 C   0  0  0  0  0  0  0  0  0  0  0  0
   -3.0000   -7.7942    0.0000 C   0  0  0  0  0  0  0  0  0  0  0  0
  1  2  1  0
  2  3  1  0
  3  4  2  0
  4  5  1  0
  5  6  2  0
  6  7  1  0
  7  8  2  0
  8  9  1  0
  9 10  1  0
 10 11  2  0
 11 12  1  0
 12 13  2  0
 13 14  1  0
 13 15  1  0
 15 16  1  0
 16 17  1  0
 17 18  2  0
 18 19  1  0
 19 20  2  0
 20 21  1  0
 21 22  2  0
 22 23  1  0
 23 24  2  0
 23 25  2  0
 23 26  1  0
 26 27  1  0
 26 28  1  0
 15 29  2  0
  5 30  1  0
 30 31  1  0
 31 32  1  0
 32 33  1  0
 33 34  1  0
 34 35  1  0
 33 36  1  0
 36 37  1  0
 37 38  1  0
 38 39  1  0
 39 40  1  0
 39 41  1  0
 41 42  1  0
  8  3  1  0
 29 10  1  0
 22 17  1  0
 35 30  1  0
 42 36  1  0
M  END
>  <activity_comment>  (1) 
active

>  <activity_id>  (1) 
9626174

>  <activity_properties>  (1) 
[]

>  <assay_chembl_id>  (1) 
CHEMBL1963787

>  <assay_description>  (1) 
PUBCHEM_BIOASSAY: Navigating the Kinome. (Class of assay: other) Panel member name: CAMK2B

>  <assay_type>  (1) 
F

>  <bao_endpoint>  (1) 
BAO_0000192

>  <bao_format>  (1) 
BAO_0000019

>  <bao_label>  (1) 
assay format

>  <canonical_smiles>  (1) 
COc1cc(ccc1Nc2ncc(Cl)c(Nc3ccccc3S(=O)(=O)C(C)C)n2)N4CCC(CC4)N5CCN(C)CC5

>  <data_validity_comment>  (1) 
nan

>  <data_validity_description>  (1) 
nan

>  <document_chembl_id>  (1) 
CHEMBL1201862

>  <document_journal>  (1) 
nan

>  <document_year>  (1) 
nan

>  <ligand_efficiency>  (1) 
nan

>  <molecule_pref_name>  (1) 
TAE-684

>  <parent_molecule_chembl_id>  (1) 
CHEMBL509032

>  <pchembl_value>  (1) 
6.1

>  <potential_duplicate>  (1) 
False

>  <qudt_units>  (1) 
http://www.openphacts.org/units/Nanomolar

>  <record_id>  (1) 
1584480

>  <relation>  (1) 
=

>  <src_id>  (1) 
7

>  <standard_flag>  (1) 
True

>  <standard_relation>  (1) 
=

>  <standard_text_value>  (1) 
nan

>  <standard_type>  (1) 
Ki

>  <standard_units>  (1) 
nM

>  <standard_upper_value>  (1) 
nan

>  <standard_value>  (1) 
794.33

>  <target_chembl_id>  (1) 
CHEMBL4121

>  <target_organism>  (1) 
Homo sapiens

>  <target_pref_name>  (1) 
CaM kinase II beta

>  <target_tax_id>  (1) 
9606

>  <text_value>  (1) 
nan

>  <toid>  (1) 
nan

>  <type>  (1) 
pKi

>  <units>  (1) 
nan

>  <uo_units>  (1) 
UO_0000065

>  <upper_value>  (1) 
nan

>  <value>  (1) 
6.1

>  <SMILES>  (1) 
COc1cc(ccc1Nc2ncc(Cl)c(Nc3ccccc3S(=O)(=O)C(C)C)n2)N4CCC(CC4)N5CCN(C)CC5

>  <NAME>  (1) 
CHEMBL509032

>  <FILTER>  (1) 
OK

>  <MW>  (1) 
614.216

>  <LogP>  (1) 
5.0241

>  <HBD>  (1) 
2

>  <HBA>  (1) 
10

>  <TPSA>  (1) 
102.93

>  <Label>  (1) 
CAMK2B

$$$$
CHEMBL1964290
     RDKit          2D

 23 25  0  0  0  0  0  0  0  0999 V2000
   -1.5000   -2.5981    0.0000 C   0  0  0  0  0  0  0  0  0  0  0  0
   -0.7500   -1.2990    0.0000 C   0  0  0  0  0  0  0  0  0  0  0  0
    0.7500   -1.2990    0.0000 C   0  0  0  0  0  0  0  0  0  0  0  0
    1.5000    0.0000    0.0000 C   0  0  0  0  0  0  0  0  0  0  0  0
    0.7500    1.2990    0.0000 C   0  0  0  0  0  0  0  0  0  0  0  0
   -0.7500    1.2990    0.0000 C   0  0  0  0  0  0  0  0  0  0  0  0
   -1.5000    0.0000    0.0000 C   0  0  0  0  0  0  0  0  0  0  0  0
   -3.0000   -0.0000    0.0000 C   0  0  0  0  0  0  0  0  0  0  0  0
   -1.5000    2.5981    0.0000 C   0  0  0  0  0  0  0  0  0  0  0  0
   -2.9918    2.7549    0.0000 N   0  0  0  0  0  0  0  0  0  0  0  0
   -3.3037    4.2221    0.0000 C   0  0  0  0  0  0  0  0  0  0  0  0
   -2.0046    4.9721    0.0000 C   0  0  0  0  0  0  0  0  0  0  0  0
   -0.8899    3.9684    0.0000 C   0  0  0  0  0  0  0  0  0  0  0  0
    0.5773    4.2803    0.0000 C   0  0  0  0  0  0  0  0  0  0  0  0
    1.5810    3.1655    0.0000 O   0  0  0  0  0  0  0  0  0  0  0  0
    1.0409    5.7068    0.0000 N   0  0  0  0  0  0  0  0  0  0  0  0
   -4.6740    4.8322    0.0000 C   0  0  0  0  0  0  0  0  0  0  0  0
   -4.8308    6.3240    0.0000 C   0  0  0  0  0  0  0  0  0  0  0  0
   -6.2011    6.9341    0.0000 C   0  0  0  0  0  0  0  0  0  0  0  0
   -7.4146    6.0524    0.0000 N   0  0  0  0  0  0  0  0  0  0  0  0
   -7.2578    4.5606    0.0000 C   0  0  0  0  0  0  0  0  0  0  0  0
   -8.4713    3.6789    0.0000 N   0  0  0  0  0  0  0  0  0  0  0  0
   -5.8875    3.9505    0.0000 N   0  0  0  0  0  0  0  0  0  0  0  0
  1  2  1  0
  2  3  2  0
  3  4  1  0
  4  5  2  0
  5  6  1  0
  6  7  2  0
  7  8  1  0
  6  9  1  0
  9 10  1  0
 10 11  1  0
 11 12  2  0
 12 13  1  0
 13 14  1  0
 14 15  2  0
 14 16  1  0
 11 17  1  0
 17 18  2  0
 18 19  1  0
 19 20  2  0
 20 21  1  0
 21 22  1  0
 21 23  2  0
  7  2  1  0
 13  9  2  0
 23 17  1  0
M  END
>  <activity_comment>  (2) 
active

>  <activity_id>  (2) 
9618744

>  <activity_properties>  (2) 
[]

>  <assay_chembl_id>  (2) 
CHEMBL1963787

>  <assay_description>  (2) 
PUBCHEM_BIOASSAY: Navigating the Kinome. (Class of assay: other) Panel member name: CAMK2B

>  <assay_type>  (2) 
F

>  <bao_endpoint>  (2) 
BAO_0000192

>  <bao_format>  (2) 
BAO_0000019

>  <bao_label>  (2) 
assay format

>  <canonical_smiles>  (2) 
Cc1cccc(c1C)c2[nH]c(cc2C(=O)N)c3ccnc(N)n3

>  <data_validity_comment>  (2) 
nan

>  <data_validity_description>  (2) 
nan

>  <document_chembl_id>  (2) 
CHEMBL1201862

>  <document_journal>  (2) 
nan

>  <document_year>  (2) 
nan

>  <ligand_efficiency>  (2) 
nan

>  <molecule_pref_name>  (2) 
nan

>  <parent_molecule_chembl_id>  (2) 
CHEMBL1964290

>  <pchembl_value>  (2) 
5.4

>  <potential_duplicate>  (2) 
False

>  <qudt_units>  (2) 
http://www.openphacts.org/units/Nanomolar

>  <record_id>  (2) 
1585480

>  <relation>  (2) 
=

>  <src_id>  (2) 
7

>  <standard_flag>  (2) 
True

>  <standard_relation>  (2) 
=

>  <standard_text_value>  (2) 
nan

>  <standard_type>  (2) 
Ki

>  <standard_units>  (2) 
nM

>  <standard_upper_value>  (2) 
nan

>  <standard_value>  (2) 
3981.07

>  <target_chembl_id>  (2) 
CHEMBL4121

>  <target_organism>  (2) 
Homo sapiens

>  <target_pref_name>  (2) 
CaM kinase II beta

>  <target_tax_id>  (2) 
9606

>  <text_value>  (2) 
nan

>  <toid>  (2) 
nan

>  <type>  (2) 
pKi

>  <units>  (2) 
nan

>  <uo_units>  (2) 
UO_0000065

>  <upper_value>  (2) 
nan

>  <value>  (2) 
5.4

>  <SMILES>  (2) 
Cc1cccc(c1C)c2[nH]c(cc2C(=O)N)c3ccnc(N)n3

>  <NAME>  (2) 
CHEMBL1964290

>  <FILTER>  (2) 
OK

>  <MW>  (2) 
307.357

>  <LogP>  (2) 
2.43664

>  <HBD>  (2) 
3

>  <HBA>  (2) 
4

>  <TPSA>  (2) 
110.68

>  <Label>  (2) 
CAMK2B

$$$$
CHEMBL1987034
     RDKit          2D

 29 31  0  0  0  0  0  0  0  0999 V2000
    4.5000    0.0000    0.0000 N   0  0  0  0  0  0  0  0  0  0  0  0
    3.0000    0.0000    0.0000 S   0  0  0  0  0  0  0  0  0  0  0  0
    3.0000   -1.5000    0.0000 O   0  0  0  0  0  0  0  0  0  0  0  0
    3.0000    1.5000    0.0000 O   0  0  0  0  0  0  0  0  0  0  0  0
    1.5000    0.0000    0.0000 C   0  0  0  0  0  0  0  0  0  0  0  0
    0.7500   -1.2990    0.0000 C   0  0  0  0  0  0  0  0  0  0  0  0
   -0.7500   -1.2990    0.0000 C   0  0  0  0  0  0  0  0  0  0  0  0
   -1.5000    0.0000    0.0000 C   0  0  0  0  0  0  0  0  0  0  0  0
   -0.7500    1.2990    0.0000 C   0  0  0  0  0  0  0  0  0  0  0  0
   -1.5000    2.5981    0.0000 N   0  0  0  0  0  0  0  0  0  0  0  0
   -0.7500    3.8971    0.0000 C   0  0  0  0  0  0  0  0  0  0  0  0
    0.7500    3.8971    0.0000 N   0  0  0  0  0  0  0  0  0  0  0  0
    1.5000    5.1962    0.0000 C   0  0  0  0  0  0  0  0  0  0  0  0
    0.7500    6.4952    0.0000 C   0  0  0  0  0  0  0  0  0  0  0  0
    1.5000    7.7942    0.0000 Br  0  0  0  0  0  0  0  0  0  0  0  0
   -0.7500    6.4952    0.0000 C   0  0  0  0  0  0  0  0  0  0  0  0
   -1.5000    7.7942    0.0000 N   0  0  0  0  0  0  0  0  0  0  0  0
   -3.0000    7.7942    0.0000 C   0  0  0  0  0  0  0  0  0  0  0  0
   -3.7500    9.0933    0.0000 C   0  0  0  0  0  0  0  0  0  0  0  0
   -5.2500    9.0933    0.0000 C   0  0  0  0  0  0  0  0  0  0  0  0
   -6.0000    7.7942    0.0000 C   0  0  0  0  0  0  0  0  0  0  0  0
   -7.5000    7.7942    0.0000 O   0  0  0  0  0  0  0  0  0  0  0  0
   -8.2500    9.0933    0.0000 C   0  0  0  0  0  0  0  0  0  0  0  0
   -9.7500    9.0933    0.0000 C   0  0  0  0  0  0  0  0  0  0  0  0
  -11.2500    9.0933    0.0000 N   0  0  0  0  0  0  0  0  0  0  0  0
   -5.2500    6.4952    0.0000 C   0  0  0  0  0  0  0  0  0  0  0  0
   -3.7500    6.4952    0.0000 C   0  0  0  0  0  0  0  0  0  0  0  0
   -1.5000    5.1962    0.0000 N   0  0  0  0  0  0  0  0  0  0  0  0
    0.7500    1.2990    0.0000 C   0  0  0  0  0  0  0  0  0  0  0  0
  1  2  1  0
  2  3  2  0
  2  4  2  0
  2  5  1  0
  5  6  2  0
  6  7  1  0
  7  8  2  0
  8  9  1  0
  9 10  1  0
 10 11  1  0
 11 12  2  0
 12 13  1  0
 13 14  2  0
 14 15  1  0
 14 16  1  0
 16 17  1  0
 17 18  1  0
 18 19  2  0
 19 20  1  0
 20 21  2  0
 21 22  1  0
 22 23  1  0
 23 24  1  0
 24 25  3  0
 21 26  1  0
 26 27  2  0
 16 28  2  0
  9 29  2  0
 29  5  1  0
 28 11  1  0
 27 18  1  0
M  END
>  <activity_comment>  (3) 
active

>  <activity_id>  (3) 
9618747

>  <activity_properties>  (3) 
[]

>  <assay_chembl_id>  (3) 
CHEMBL1963787

>  <assay_description>  (3) 
PUBCHEM_BIOASSAY: Navigating the Kinome. (Class of assay: other) Panel member name: CAMK2B

>  <assay_type>  (3) 
F

>  <bao_endpoint>  (3) 
BAO_0000192

>  <bao_format>  (3) 
BAO_0000019

>  <bao_label>  (3) 
assay format

>  <canonical_smiles>  (3) 
NS(=O)(=O)c1cccc(Nc2ncc(Br)c(Nc3ccc(OCC#N)cc3)n2)c1

>  <data_validity_comment>  (3) 
nan

>  <data_validity_description>  (3) 
nan

>  <document_chembl_id>  (3) 
CHEMBL1201862

>  <document_journal>  (3) 
nan

>  <document_year>  (3) 
nan

>  <ligand_efficiency>  (3) 
nan

>  <molecule_pref_name>  (3) 
nan

>  <parent_molecule_chembl_id>  (3) 
CHEMBL1987034

>  <pchembl_value>  (3) 
5.6

>  <potential_duplicate>  (3) 
False

>  <qudt_units>  (3) 
http://www.openphacts.org/units/Nanomolar

>  <record_id>  (3) 
1584474

>  <relation>  (3) 
=

>  <src_id>  (3) 
7

>  <standard_flag>  (3) 
True

>  <standard_relation>  (3) 
=

>  <standard_text_value>  (3) 
nan

>  <standard_type>  (3) 
Ki

>  <standard_units>  (3) 
nM

>  <standard_upper_value>  (3) 
nan

>  <standard_value>  (3) 
2511.89

>  <target_chembl_id>  (3) 
CHEMBL4121

>  <target_organism>  (3) 
Homo sapiens

>  <target_pref_name>  (3) 
CaM kinase II beta

>  <target_tax_id>  (3) 
9606

>  <text_value>  (3) 
nan

>  <toid>  (3) 
nan

>  <type>  (3) 
pKi

>  <units>  (3) 
nan

>  <uo_units>  (3) 
UO_0000065

>  <upper_value>  (3) 
nan

>  <value>  (3) 
5.6

>  <SMILES>  (3) 
NS(=O)(=O)c1cccc(Nc2ncc(Br)c(Nc3ccc(OCC#N)cc3)n2)c1

>  <NAME>  (3) 
CHEMBL1987034

>  <FILTER>  (3) 
OK

>  <MW>  (3) 
475.328

>  <LogP>  (3) 
3.27608

>  <HBD>  (3) 
3

>  <HBA>  (3) 
8

>  <TPSA>  (3) 
143.02

>  <Label>  (3) 
CAMK2B

$$$$
CHEMBL2005886
     RDKit          2D

 34 38  0  0  0  0  0  0  0  0999 V2000
   -3.5736    1.2902    0.0000 C   0  0  0  0  0  0  0  0  0  0  0  0
   -2.1470    1.7537    0.0000 C   0  0  0  0  0  0  0  0  0  0  0  0
   -1.8351    3.2209    0.0000 C   0  0  0  0  0  0  0  0  0  0  0  0
   -0.4086    3.6844    0.0000 C   0  0  0  0  0  0  0  0  0  0  0  0
    0.7062    2.6807    0.0000 C   0  0  0  0  0  0  0  0  0  0  0  0
    0.3943    1.2135    0.0000 C   0  0  0  0  0  0  0  0  0  0  0  0
    1.2760    0.0000    0.0000 N   0  0  0  0  0  0  0  0  0  0  0  0
    0.3943   -1.2135    0.0000 C   0  0  0  0  0  0  0  0  0  0  0  0
   -1.0323   -0.7500    0.0000 N   0  0  0  0  0  0  0  0  0  0  0  0
   -1.0323    0.7500    0.0000 C   0  0  0  0  0  0  0  0  0  0  0  0
    0.8578   -2.6401    0.0000 C   0  0  0  0  0  0  0  0  0  0  0  0
   -0.1459   -3.7548    0.0000 C   0  0  0  0  0  0  0  0  0  0  0  0
   -1.6131   -3.4430    0.0000 N   0  0  0  0  0  0  0  0  0  0  0  0
   -2.6168   -4.5577    0.0000 C   0  0  0  0  0  0  0  0  0  0  0  0
   -4.0840   -4.2458    0.0000 C   0  0  0  0  0  0  0  0  0  0  0  0
   -4.5475   -2.8192    0.0000 O   0  0  0  0  0  0  0  0  0  0  0  0
   -5.0877   -5.3605    0.0000 C   0  0  0  0  0  0  0  0  0  0  0  0
   -6.5549   -5.0487    0.0000 C   0  0  0  0  0  0  0  0  0  0  0  0
   -7.5586   -6.1634    0.0000 C   0  0  0  0  0  0  0  0  0  0  0  0
   -7.0951   -7.5900    0.0000 C   0  0  0  0  0  0  0  0  0  0  0  0
   -5.6279   -7.9018    0.0000 C   0  0  0  0  0  0  0  0  0  0  0  0
   -5.1644   -9.3284    0.0000 Cl  0  0  0  0  0  0  0  0  0  0  0  0
   -4.6242   -6.7871    0.0000 C   0  0  0  0  0  0  0  0  0  0  0  0
    0.3177   -5.1814    0.0000 C   0  0  0  0  0  0  0  0  0  0  0  0
    1.7849   -5.4933    0.0000 C   0  0  0  0  0  0  0  0  0  0  0  0
    2.7886   -4.3786    0.0000 N   0  0  0  0  0  0  0  0  0  0  0  0
    2.3250   -2.9520    0.0000 C   0  0  0  0  0  0  0  0  0  0  0  0
    3.3287   -1.8373    0.0000 O   0  0  0  0  0  0  0  0  0  0  0  0
   -0.0967    5.1517    0.0000 N   0  0  0  0  0  0  0  0  0  0  0  0
    1.3299    5.6152    0.0000 C   0  0  0  0  0  0  0  0  0  0  0  0
    1.6418    7.0824    0.0000 C   0  0  0  0  0  0  0  0  0  0  0  0
    0.5271    8.0861    0.0000 O   0  0  0  0  0  0  0  0  0  0  0  0
   -0.8995    7.6226    0.0000 C   0  0  0  0  0  0  0  0  0  0  0  0
   -1.2114    6.1554    0.0000 C   0  0  0  0  0  0  0  0  0  0  0  0
  1  2  1  0
  2  3  2  0
  3  4  1  0
  4  5  2  0
  5  6  1  0
  6  7  1  0
  7  8  1  0
  8  9  2  0
  9 10  1  0
  8 11  1  0
 11 12  2  0
 12 13  1  0
 13 14  1  0
 14 15  1  0
 15 16  1  0
 15 17  1  0
 17 18  2  0
 18 19  1  0
 19 20  2  0
 20 21  1  0
 21 22  1  0
 21 23  2  0
 12 24  1  0
 24 25  2  0
 25 26  1  0
 26 27  1  0
 27 28  2  0
  4 29  1  0
 29 30  1  0
 30 31  1  0
 31 32  1  0
 32 33  1  0
 33 34  1  0
 10  2  1  0
 10  6  2  0
 27 11  1  0
 23 17  1  0
 34 29  1  0
M  END
>  <activity_comment>  (4) 
active

>  <activity_id>  (4) 
9618750

>  <activity_properties>  (4) 
[]

>  <assay_chembl_id>  (4) 
CHEMBL1963787

>  <assay_description>  (4) 
PUBCHEM_BIOASSAY: Navigating the Kinome. (Class of assay: other) Panel member name: CAMK2B

>  <assay_type>  (4) 
F

>  <bao_endpoint>  (4) 
BAO_0000192

>  <bao_format>  (4) 
BAO_0000019

>  <bao_label>  (4) 
assay format

>  <canonical_smiles>  (4) 
Cc1cc(cc2[nH]c(nc12)C3=C(NCC(O)c4cccc(Cl)c4)C=CNC3=O)N5CCOCC5

>  <data_validity_comment>  (4) 
nan

>  <data_validity_description>  (4) 
nan

>  <document_chembl_id>  (4) 
CHEMBL1201862

>  <document_journal>  (4) 
nan

>  <document_year>  (4) 
nan

>  <ligand_efficiency>  (4) 
nan

>  <molecule_pref_name>  (4) 
nan

>  <parent_molecule_chembl_id>  (4) 
CHEMBL2005886

>  <pchembl_value>  (4) 
5.2

>  <potential_duplicate>  (4) 
False

>  <qudt_units>  (4) 
http://www.openphacts.org/units/Nanomolar

>  <record_id>  (4) 
1585370

>  <relation>  (4) 
=

>  <src_id>  (4) 
7

>  <standard_flag>  (4) 
True

>  <standard_relation>  (4) 
=

>  <standard_text_value>  (4) 
nan

>  <standard_type>  (4) 
Ki

>  <standard_units>  (4) 
nM

>  <standard_upper_value>  (4) 
nan

>  <standard_value>  (4) 
6309.57

>  <target_chembl_id>  (4) 
CHEMBL4121

>  <target_organism>  (4) 
Homo sapiens

>  <target_pref_name>  (4) 
CaM kinase II beta

>  <target_tax_id>  (4) 
9606

>  <text_value>  (4) 
nan

>  <toid>  (4) 
nan

>  <type>  (4) 
pKi

>  <units>  (4) 
nan

>  <uo_units>  (4) 
UO_0000065

>  <upper_value>  (4) 
nan

>  <value>  (4) 
5.2

>  <SMILES>  (4) 
Cc1cc(cc2[nH]c(nc12)C3=C(NCC(O)c4cccc(Cl)c4)C=CNC3=O)N5CCOCC5

>  <NAME>  (4) 
CHEMBL2005886

>  <FILTER>  (4) 
OK

>  <MW>  (4) 
479.968

>  <LogP>  (4) 
3.86212

>  <HBD>  (4) 
4

>  <HBA>  (4) 
6

>  <TPSA>  (4) 
106.27

>  <Label>  (4) 
CAMK2B

$$$$
CHEMBL481491
     RDKit          2D

 29 32  0  0  0  0  0  0  0  0999 V2000
   -6.9771   -5.6725    0.0000 N   0  0  0  0  0  0  0  0  0  0  0  0
   -5.4853   -5.8293    0.0000 C   0  0  0  0  0  0  0  0  0  0  0  0
   -4.8752   -7.1996    0.0000 O   0  0  0  0  0  0  0  0  0  0  0  0
   -4.6036   -4.6157    0.0000 C   0  0  0  0  0  0  0  0  0  0  0  0
   -3.1036   -4.6157    0.0000 S   0  0  0  0  0  0  0  0  0  0  0  0
   -2.6401   -3.1891    0.0000 C   0  0  0  0  0  0  0  0  0  0  0  0
   -3.8536   -2.3075    0.0000 C   0  0  0  0  0  0  0  0  0  0  0  0
   -5.0672   -3.1891    0.0000 C   0  0  0  0  0  0  0  0  0  0  0  0
   -6.4937   -2.7256    0.0000 O   0  0  0  0  0  0  0  0  0  0  0  0
   -6.8056   -1.2584    0.0000 C   0  0  0  0  0  0  0  0  0  0  0  0
   -8.2322   -0.7949    0.0000 C   0  0  0  0  0  0  0  0  0  0  0  0
   -8.5441    0.6723    0.0000 C   0  0  0  0  0  0  0  0  0  0  0  0
   -9.9707    1.1359    0.0000 C   0  0  0  0  0  0  0  0  0  0  0  0
  -11.0854    0.1322    0.0000 C   0  0  0  0  0  0  0  0  0  0  0  0
  -10.7735   -1.3350    0.0000 C   0  0  0  0  0  0  0  0  0  0  0  0
   -9.3469   -1.7986    0.0000 C   0  0  0  0  0  0  0  0  0  0  0  0
   -9.0350   -3.2658    0.0000 C   0  0  0  0  0  0  0  0  0  0  0  0
   -8.7232   -4.7330    0.0000 F   0  0  0  0  0  0  0  0  0  0  0  0
  -10.5023   -3.5777    0.0000 F   0  0  0  0  0  0  0  0  0  0  0  0
   -7.5678   -2.9539    0.0000 F   0  0  0  0  0  0  0  0  0  0  0  0
   -1.2135   -2.7256    0.0000 N   0  0  0  0  0  0  0  0  0  0  0  0
    0.0000   -3.6073    0.0000 C   0  0  0  0  0  0  0  0  0  0  0  0
    1.2135   -2.7256    0.0000 N   0  0  0  0  0  0  0  0  0  0  0  0
    0.7500   -1.2990    0.0000 C   0  0  0  0  0  0  0  0  0  0  0  0
    1.5000    0.0000    0.0000 C   0  0  0  0  0  0  0  0  0  0  0  0
    0.7500    1.2990    0.0000 C   0  0  0  0  0  0  0  0  0  0  0  0
   -0.7500    1.2990    0.0000 C   0  0  0  0  0  0  0  0  0  0  0  0
   -1.5000    0.0000    0.0000 C   0  0  0  0  0  0  0  0  0  0  0  0
   -0.7500   -1.2990    0.0000 C   0  0  0  0  0  0  0  0  0  0  0  0
  1  2  1  0
  2  3  2  0
  2  4  1  0
  4  5  1  0
  5  6  1  0
  6  7  2  0
  7  8  1  0
  8  9  1  0
  9 10  1  0
 10 11  1  0
 11 12  2  0
 12 13  1  0
 13 14  2  0
 14 15  1  0
 15 16  2  0
 16 17  1  0
 17 18  1  0
 17 19  1  0
 17 20  1  0
  6 21  1  0
 21 22  1  0
 22 23  2  0
 23 24  1  0
 24 25  2  0
 25 26  1  0
 26 27  2  0
 27 28  1  0
 28 29  2  0
  8  4  2  0
 16 11  1  0
 29 21  1  0
 29 24  1  0
M  END
>  <activity_comment>  (5) 
active

>  <activity_id>  (5) 
9618751

>  <activity_properties>  (5) 
[]

>  <assay_chembl_id>  (5) 
CHEMBL1963787

>  <assay_description>  (5) 
PUBCHEM_BIOASSAY: Navigating the Kinome. (Class of assay: other) Panel member name: CAMK2B

>  <assay_type>  (5) 
F

>  <bao_endpoint>  (5) 
BAO_0000192

>  <bao_format>  (5) 
BAO_0000019

>  <bao_label>  (5) 
assay format

>  <canonical_smiles>  (5) 
NC(=O)c1sc(cc1OCc2ccccc2C(F)(F)F)n3cnc4ccccc34

>  <data_validity_comment>  (5) 
nan

>  <data_validity_description>  (5) 
nan

>  <document_chembl_id>  (5) 
CHEMBL1201862

>  <document_journal>  (5) 
nan

>  <document_year>  (5) 
nan

>  <ligand_efficiency>  (5) 
nan

>  <molecule_pref_name>  (5) 
nan

>  <parent_molecule_chembl_id>  (5) 
CHEMBL481491

>  <pchembl_value>  (5) 
5.2

>  <potential_duplicate>  (5) 
False

>  <qudt_units>  (5) 
http://www.openphacts.org/units/Nanomolar

>  <record_id>  (5) 
1585312

>  <relation>  (5) 
=

>  <src_id>  (5) 
7

>  <standard_flag>  (5) 
True

>  <standard_relation>  (5) 
=

>  <standard_text_value>  (5) 
nan

>  <standard_type>  (5) 
Ki

>  <standard_units>  (5) 
nM

>  <standard_upper_value>  (5) 
nan

>  <standard_value>  (5) 
6309.57

>  <target_chembl_id>  (5) 
CHEMBL4121

>  <target_organism>  (5) 
Homo sapiens

>  <target_pref_name>  (5) 
CaM kinase II beta

>  <target_tax_id>  (5) 
9606

>  <text_value>  (5) 
nan

>  <toid>  (5) 
nan

>  <type>  (5) 
pKi

>  <units>  (5) 
nan

>  <uo_units>  (5) 
UO_0000065

>  <upper_value>  (5) 
nan

>  <value>  (5) 
5.2

>  <SMILES>  (5) 
NC(=O)c1sc(cc1OCc2ccccc2C(F)(F)F)n3cnc4ccccc34

>  <NAME>  (5) 
CHEMBL481491

>  <FILTER>  (5) 
OK

>  <MW>  (5) 
417.412

>  <LogP>  (5) 
4.7837

>  <HBD>  (5) 
1

>  <HBA>  (5) 
5

>  <TPSA>  (5) 
70.14

>  <Label>  (5) 
CAMK2B

$$$$
CHEMBL1973142
     RDKit          2D

 18 19  0  0  0  0  0  0  0  0999 V2000
   -3.4430   -0.7182    0.0000 C   0  0  0  0  0  0  0  0  0  0  0  0
   -3.7548   -2.1855    0.0000 C   0  0  0  0  0  0  0  0  0  0  0  0
   -5.1814   -2.6490    0.0000 O   0  0  0  0  0  0  0  0  0  0  0  0
   -2.6401   -3.1891    0.0000 N   0  0  0  0  0  0  0  0  0  0  0  0
   -1.2135   -2.7256    0.0000 C   0  0  0  0  0  0  0  0  0  0  0  0
   -0.0000   -3.6073    0.0000 C   0  0  0  0  0  0  0  0  0  0  0  0
    1.2135   -2.7256    0.0000 S   0  0  0  0  0  0  0  0  0  0  0  0
    0.7500   -1.2990    0.0000 C   0  0  0  0  0  0  0  0  0  0  0  0
    1.5000    0.0000    0.0000 C   0  0  0  0  0  0  0  0  0  0  0  0
    0.7500    1.2990    0.0000 C   0  0  0  0  0  0  0  0  0  0  0  0
   -0.7500    1.2990    0.0000 C   0  0  0  0  0  0  0  0  0  0  0  0
   -1.5000    2.5981    0.0000 Cl  0  0  0  0  0  0  0  0  0  0  0  0
   -1.5000    0.0000    0.0000 C   0  0  0  0  0  0  0  0  0  0  0  0
   -3.0000    0.0000    0.0000 Cl  0  0  0  0  0  0  0  0  0  0  0  0
   -0.7500   -1.2990    0.0000 C   0  0  0  0  0  0  0  0  0  0  0  0
   -0.0000   -5.1073    0.0000 C   0  0  0  0  0  0  0  0  0  0  0  0
    1.2990   -5.8573    0.0000 O   0  0  0  0  0  0  0  0  0  0  0  0
   -1.2990   -5.8573    0.0000 N   0  0  0  0  0  0  0  0  0  0  0  0
  1  2  1  0
  2  3  2  0
  2  4  1  0
  4  5  1  0
  5  6  2  0
  6  7  1  0
  7  8  1  0
  8  9  2  0
  9 10  1  0
 10 11  2  0
 11 12  1  0
 11 13  1  0
 13 14  1  0
 13 15  2  0
  6 16  1  0
 16 17  2  0
 16 18  1  0
 15  5  1  0
 15  8  1  0
M  END
>  <activity_comment>  (6) 
active

>  <activity_id>  (6) 
9618752

>  <activity_properties>  (6) 
[]

>  <assay_chembl_id>  (6) 
CHEMBL1963787

>  <assay_description>  (6) 
PUBCHEM_BIOASSAY: Navigating the Kinome. (Class of assay: other) Panel member name: CAMK2B

>  <assay_type>  (6) 
F

>  <bao_endpoint>  (6) 
BAO_0000192

>  <bao_format>  (6) 
BAO_0000019

>  <bao_label>  (6) 
assay format

>  <canonical_smiles>  (6) 
CC(=O)Nc1c(sc2ccc(Cl)c(Cl)c12)C(=O)N

>  <data_validity_comment>  (6) 
nan

>  <data_validity_description>  (6) 
nan

>  <document_chembl_id>  (6) 
CHEMBL1201862

>  <document_journal>  (6) 
nan

>  <document_year>  (6) 
nan

>  <ligand_efficiency>  (6) 
nan

>  <molecule_pref_name>  (6) 
nan

>  <parent_molecule_chembl_id>  (6) 
CHEMBL1973142

>  <pchembl_value>  (6) 
5.9

>  <potential_duplicate>  (6) 
False

>  <qudt_units>  (6) 
http://www.openphacts.org/units/Nanomolar

>  <record_id>  (6) 
1585487

>  <relation>  (6) 
=

>  <src_id>  (6) 
7

>  <standard_flag>  (6) 
True

>  <standard_relation>  (6) 
=

>  <standard_text_value>  (6) 
nan

>  <standard_type>  (6) 
Ki

>  <standard_units>  (6) 
nM

>  <standard_upper_value>  (6) 
nan

>  <standard_value>  (6) 
1258.93

>  <target_chembl_id>  (6) 
CHEMBL4121

>  <target_organism>  (6) 
Homo sapiens

>  <target_pref_name>  (6) 
CaM kinase II beta

>  <target_tax_id>  (6) 
9606

>  <text_value>  (6) 
nan

>  <toid>  (6) 
nan

>  <type>  (6) 
pKi

>  <units>  (6) 
nan

>  <uo_units>  (6) 
UO_0000065

>  <upper_value>  (6) 
nan

>  <value>  (6) 
5.9

>  <SMILES>  (6) 
CC(=O)Nc1c(sc2ccc(Cl)c(Cl)c12)C(=O)N

>  <NAME>  (6) 
CHEMBL1973142

>  <FILTER>  (6) 
OK

>  <MW>  (6) 
303.17

>  <LogP>  (6) 
3.2654

>  <HBD>  (6) 
2

>  <HBA>  (6) 
3

>  <TPSA>  (6) 
72.19

>  <Label>  (6) 
CAMK2B

$$$$
CHEMBL1982924
     RDKit          2D

 26 29  0  0  0  0  0  0  0  0999 V2000
    6.0000   -7.7942    0.0000 C   0  0  0  0  0  0  0  0  0  0  0  0
    5.2500   -6.4952    0.0000 O   0  0  0  0  0  0  0  0  0  0  0  0
    3.7500   -6.4952    0.0000 C   0  0  0  0  0  0  0  0  0  0  0  0
    3.0000   -7.7942    0.0000 C   0  0  0  0  0  0  0  0  0  0  0  0
    1.5000   -7.7942    0.0000 C   0  0  0  0  0  0  0  0  0  0  0  0
    0.7500   -6.4952    0.0000 C   0  0  0  0  0  0  0  0  0  0  0  0
    1.5000   -5.1962    0.0000 C   0  0  0  0  0  0  0  0  0  0  0  0
    3.0000   -5.1962    0.0000 C   0  0  0  0  0  0  0  0  0  0  0  0
    0.7500   -3.8971    0.0000 C   0  0  0  0  0  0  0  0  0  0  0  0
   -0.7500   -3.8971    0.0000 O   0  0  0  0  0  0  0  0  0  0  0  0
    1.5000   -2.5981    0.0000 N   0  0  0  0  0  0  0  0  0  0  0  0
    0.7500   -1.2990    0.0000 C   0  0  0  0  0  0  0  0  0  0  0  0
    1.5000    0.0000    0.0000 C   0  0  0  0  0  0  0  0  0  0  0  0
    0.7500    1.2990    0.0000 N   0  0  0  0  0  0  0  0  0  0  0  0
   -0.7500    1.2990    0.0000 C   0  0  0  0  0  0  0  0  0  0  0  0
   -1.7537    2.4138    0.0000 N   0  0  0  0  0  0  0  0  0  0  0  0
   -3.1240    1.8037    0.0000 C   0  0  0  0  0  0  0  0  0  0  0  0
   -2.9672    0.3119    0.0000 C   0  0  0  0  0  0  0  0  0  0  0  0
   -4.0819   -0.6918    0.0000 C   0  0  0  0  0  0  0  0  0  0  0  0
   -5.5085   -0.2283    0.0000 C   0  0  0  0  0  0  0  0  0  0  0  0
   -6.6232   -1.2320    0.0000 C   0  0  0  0  0  0  0  0  0  0  0  0
   -6.3114   -2.6992    0.0000 C   0  0  0  0  0  0  0  0  0  0  0  0
   -4.8848   -3.1627    0.0000 C   0  0  0  0  0  0  0  0  0  0  0  0
   -3.7701   -2.1590    0.0000 C   0  0  0  0  0  0  0  0  0  0  0  0
   -1.5000    0.0000    0.0000 C   0  0  0  0  0  0  0  0  0  0  0  0
   -0.7500   -1.2990    0.0000 C   0  0  0  0  0  0  0  0  0  0  0  0
  1  2  1  0
  2  3  1  0
  3  4  2  0
  4  5  1  0
  5  6  2  0
  6  7  1  0
  7  8  2  0
  7  9  1  0
  9 10  2  0
  9 11  1  0
 11 12  1  0
 12 13  2  0
 13 14  1  0
 14 15  2  0
 15 16  1  0
 16 17  1  0
 17 18  2  0
 18 19  1  0
 19 20  2  0
 20 21  1  0
 21 22  2  0
 22 23  1  0
 23 24  2  0
 18 25  1  0
 25 26  2  0
  8  3  1  0
 26 12  1  0
 25 15  1  0
 24 19  1  0
M  END
>  <activity_comment>  (7) 
active

>  <activity_id>  (7) 
9618754

>  <activity_properties>  (7) 
[]

>  <assay_chembl_id>  (7) 
CHEMBL1963787

>  <assay_description>  (7) 
PUBCHEM_BIOASSAY: Navigating the Kinome. (Class of assay: other) Panel member name: CAMK2B

>  <assay_type>  (7) 
F

>  <bao_endpoint>  (7) 
BAO_0000192

>  <bao_format>  (7) 
BAO_0000019

>  <bao_label>  (7) 
assay format

>  <canonical_smiles>  (7) 
COc1cccc(c1)C(=O)Nc2cnc3[nH]cc(c4ccccc4)c3c2

>  <data_validity_comment>  (7) 
nan

>  <data_validity_description>  (7) 
nan

>  <document_chembl_id>  (7) 
CHEMBL1201862

>  <document_journal>  (7) 
nan

>  <document_year>  (7) 
nan

>  <ligand_efficiency>  (7) 
nan

>  <molecule_pref_name>  (7) 
nan

>  <parent_molecule_chembl_id>  (7) 
CHEMBL1982924

>  <pchembl_value>  (7) 
5.8

>  <potential_duplicate>  (7) 
False

>  <qudt_units>  (7) 
http://www.openphacts.org/units/Nanomolar

>  <record_id>  (7) 
1584092

>  <relation>  (7) 
=

>  <src_id>  (7) 
7

>  <standard_flag>  (7) 
True

>  <standard_relation>  (7) 
=

>  <standard_text_value>  (7) 
nan

>  <standard_type>  (7) 
Ki

>  <standard_units>  (7) 
nM

>  <standard_upper_value>  (7) 
nan

>  <standard_value>  (7) 
1584.89

>  <target_chembl_id>  (7) 
CHEMBL4121

>  <target_organism>  (7) 
Homo sapiens

>  <target_pref_name>  (7) 
CaM kinase II beta

>  <target_tax_id>  (7) 
9606

>  <text_value>  (7) 
nan

>  <toid>  (7) 
nan

>  <type>  (7) 
pKi

>  <units>  (7) 
nan

>  <uo_units>  (7) 
UO_0000065

>  <upper_value>  (7) 
nan

>  <value>  (7) 
5.8

>  <SMILES>  (7) 
COc1cccc(c1)C(=O)Nc2cnc3[nH]cc(c4ccccc4)c3c2

>  <NAME>  (7) 
CHEMBL1982924

>  <FILTER>  (7) 
OK

>  <MW>  (7) 
343.386

>  <LogP>  (7) 
4.4908

>  <HBD>  (7) 
2

>  <HBA>  (7) 
3

>  <TPSA>  (7) 
67.01

>  <Label>  (7) 
CAMK2B

$$$$
CHEMBL1966628
     RDKit          2D

 23 26  0  0  0  0  0  0  0  0999 V2000
   -5.0487    4.2236    0.0000 N   0  0  0  0  0  0  0  0  0  0  0  0
   -5.3605    2.7564    0.0000 C   0  0  0  0  0  0  0  0  0  0  0  0
   -4.2458    1.7527    0.0000 C   0  0  0  0  0  0  0  0  0  0  0  0
   -4.5577    0.2855    0.0000 C   0  0  0  0  0  0  0  0  0  0  0  0
   -5.9843   -0.1781    0.0000 C   0  0  0  0  0  0  0  0  0  0  0  0
   -7.0990    0.8256    0.0000 C   0  0  0  0  0  0  0  0  0  0  0  0
   -6.7871    2.2929    0.0000 C   0  0  0  0  0  0  0  0  0  0  0  0
   -6.2961   -1.6453    0.0000 N   0  0  0  0  0  0  0  0  0  0  0  0
   -5.1814   -2.6490    0.0000 C   0  0  0  0  0  0  0  0  0  0  0  0
   -5.4933   -4.1162    0.0000 N   0  0  0  0  0  0  0  0  0  0  0  0
   -4.3786   -5.1199    0.0000 C   0  0  0  0  0  0  0  0  0  0  0  0
   -2.9520   -4.6564    0.0000 C   0  0  0  0  0  0  0  0  0  0  0  0
   -2.6401   -3.1891    0.0000 C   0  0  0  0  0  0  0  0  0  0  0  0
   -3.7548   -2.1855    0.0000 N   0  0  0  0  0  0  0  0  0  0  0  0
   -1.2135   -2.7256    0.0000 C   0  0  0  0  0  0  0  0  0  0  0  0
    0.0000   -3.6073    0.0000 C   0  0  0  0  0  0  0  0  0  0  0  0
    1.2135   -2.7256    0.0000 N   0  0  0  0  0  0  0  0  0  0  0  0
    0.7500   -1.2990    0.0000 C   0  0  0  0  0  0  0  0  0  0  0  0
    1.5000    0.0000    0.0000 N   0  0  0  0  0  0  0  0  0  0  0  0
    0.7500    1.2990    0.0000 C   0  0  0  0  0  0  0  0  0  0  0  0
   -0.7500    1.2990    0.0000 C   0  0  0  0  0  0  0  0  0  0  0  0
   -1.5000    0.0000    0.0000 C   0  0  0  0  0  0  0  0  0  0  0  0
   -0.7500   -1.2990    0.0000 C   0  0  0  0  0  0  0  0  0  0  0  0
  1  2  1  0
  2  3  1  0
  3  4  1  0
  4  5  1  0
  5  6  1  0
  6  7  1  0
  5  8  1  0
  8  9  1  0
  9 10  2  0
 10 11  1  0
 11 12  2  0
 12 13  1  0
 13 14  2  0
 13 15  1  0
 15 16  2  0
 16 17  1  0
 17 18  1  0
 18 19  2  0
 19 20  1  0
 20 21  2  0
 21 22  1  0
 22 23  2  0
  7  2  1  0
 14  9  1  0
 23 15  1  0
 23 18  1  0
M  END
>  <activity_comment>  (8) 
active

>  <activity_id>  (8) 
9618756

>  <activity_properties>  (8) 
[]

>  <assay_chembl_id>  (8) 
CHEMBL1963787

>  <assay_description>  (8) 
PUBCHEM_BIOASSAY: Navigating the Kinome. (Class of assay: other) Panel member name: CAMK2B

>  <assay_type>  (8) 
F

>  <bao_endpoint>  (8) 
BAO_0000192

>  <bao_format>  (8) 
BAO_0000019

>  <bao_label>  (8) 
assay format

>  <canonical_smiles>  (8) 
NC1CCC(CC1)Nc2nccc(n2)c3c[nH]c4ncccc34

>  <data_validity_comment>  (8) 
nan

>  <data_validity_description>  (8) 
nan

>  <document_chembl_id>  (8) 
CHEMBL1201862

>  <document_journal>  (8) 
nan

>  <document_year>  (8) 
nan

>  <ligand_efficiency>  (8) 
nan

>  <molecule_pref_name>  (8) 
nan

>  <parent_molecule_chembl_id>  (8) 
CHEMBL1966628

>  <pchembl_value>  (8) 
7.1

>  <potential_duplicate>  (8) 
False

>  <qudt_units>  (8) 
http://www.openphacts.org/units/Nanomolar

>  <record_id>  (8) 
1584085

>  <relation>  (8) 
=

>  <src_id>  (8) 
7

>  <standard_flag>  (8) 
True

>  <standard_relation>  (8) 
=

>  <standard_text_value>  (8) 
nan

>  <standard_type>  (8) 
Ki

>  <standard_units>  (8) 
nM

>  <standard_upper_value>  (8) 
nan

>  <standard_value>  (8) 
79.43

>  <target_chembl_id>  (8) 
CHEMBL4121

>  <target_organism>  (8) 
Homo sapiens

>  <target_pref_name>  (8) 
CaM kinase II beta

>  <target_tax_id>  (8) 
9606

>  <text_value>  (8) 
nan

>  <toid>  (8) 
nan

>  <type>  (8) 
pKi

>  <units>  (8) 
nan

>  <uo_units>  (8) 
UO_0000065

>  <upper_value>  (8) 
nan

>  <value>  (8) 
7.1

>  <SMILES>  (8) 
NC1CCC(CC1)Nc2nccc(n2)c3c[nH]c4ncccc34

>  <NAME>  (8) 
CHEMBL1966628

>  <FILTER>  (8) 
OK

>  <MW>  (8) 
308.389

>  <LogP>  (8) 
2.7017

>  <HBD>  (8) 
3

>  <HBA>  (8) 
5

>  <TPSA>  (8) 
92.51

>  <Label>  (8) 
CAMK2B

$$$$
CHEMBL1995813
     RDKit          2D

 23 26  0  0  0  0  0  0  0  0999 V2000
   -8.5256    0.3621    0.0000 N   0  0  0  0  0  0  0  0  0  0  0  0
   -7.0990    0.8256    0.0000 C   0  0  0  0  0  0  0  0  0  0  0  0
   -6.7871    2.2929    0.0000 C   0  0  0  0  0  0  0  0  0  0  0  0
   -5.3605    2.7564    0.0000 C   0  0  0  0  0  0  0  0  0  0  0  0
   -4.2458    1.7527    0.0000 C   0  0  0  0  0  0  0  0  0  0  0  0
   -4.5577    0.2855    0.0000 C   0  0  0  0  0  0  0  0  0  0  0  0
   -5.9843   -0.1781    0.0000 C   0  0  0  0  0  0  0  0  0  0  0  0
   -6.2961   -1.6453    0.0000 N   0  0  0  0  0  0  0  0  0  0  0  0
   -5.1814   -2.6490    0.0000 C   0  0  0  0  0  0  0  0  0  0  0  0
   -5.4933   -4.1162    0.0000 N   0  0  0  0  0  0  0  0  0  0  0  0
   -4.3786   -5.1199    0.0000 C   0  0  0  0  0  0  0  0  0  0  0  0
   -2.9520   -4.6564    0.0000 C   0  0  0  0  0  0  0  0  0  0  0  0
   -2.6401   -3.1891    0.0000 C   0  0  0  0  0  0  0  0  0  0  0  0
   -3.7548   -2.1855    0.0000 N   0  0  0  0  0  0  0  0  0  0  0  0
   -1.2135   -2.7256    0.0000 C   0  0  0  0  0  0  0  0  0  0  0  0
    0.0000   -3.6073    0.0000 C   0  0  0  0  0  0  0  0  0  0  0  0
    1.2135   -2.7256    0.0000 N   0  0  0  0  0  0  0  0  0  0  0  0
    0.7500   -1.2990    0.0000 C   0  0  0  0  0  0  0  0  0  0  0  0
    1.5000    0.0000    0.0000 N   0  0  0  0  0  0  0  0  0  0  0  0
    0.7500    1.2990    0.0000 C   0  0  0  0  0  0  0  0  0  0  0  0
   -0.7500    1.2990    0.0000 C   0  0  0  0  0  0  0  0  0  0  0  0
   -1.5000    0.0000    0.0000 C   0  0  0  0  0  0  0  0  0  0  0  0
   -0.7500   -1.2990    0.0000 C   0  0  0  0  0  0  0  0  0  0  0  0
  1  2  1  0
  2  3  1  0
  3  4  1  0
  4  5  1  0
  5  6  1  0
  6  7  1  0
  7  8  1  0
  8  9  1  0
  9 10  2  0
 10 11  1  0
 11 12  2  0
 12 13  1  0
 13 14  2  0
 13 15  1  0
 15 16  2  0
 16 17  1  0
 17 18  1  0
 18 19  2  0
 19 20  1  0
 20 21  2  0
 21 22  1  0
 22 23  2  0
  7  2  1  0
 14  9  1  0
 23 15  1  0
 23 18  1  0
M  END
>  <activity_comment>  (9) 
active

>  <activity_id>  (9) 
9618758

>  <activity_properties>  (9) 
[]

>  <assay_chembl_id>  (9) 
CHEMBL1963787

>  <assay_description>  (9) 
PUBCHEM_BIOASSAY: Navigating the Kinome. (Class of assay: other) Panel member name: CAMK2B

>  <assay_type>  (9) 
F

>  <bao_endpoint>  (9) 
BAO_0000192

>  <bao_format>  (9) 
BAO_0000019

>  <bao_label>  (9) 
assay format

>  <canonical_smiles>  (9) 
NC1CCCCC1Nc2nccc(n2)c3c[nH]c4ncccc34

>  <data_validity_comment>  (9) 
nan

>  <data_validity_description>  (9) 
nan

>  <document_chembl_id>  (9) 
CHEMBL1201862

>  <document_journal>  (9) 
nan

>  <document_year>  (9) 
nan

>  <ligand_efficiency>  (9) 
nan

>  <molecule_pref_name>  (9) 
nan

>  <parent_molecule_chembl_id>  (9) 
CHEMBL1995813

>  <pchembl_value>  (9) 
6.5

>  <potential_duplicate>  (9) 
False

>  <qudt_units>  (9) 
http://www.openphacts.org/units/Nanomolar

>  <record_id>  (9) 
1584084

>  <relation>  (9) 
=

>  <src_id>  (9) 
7

>  <standard_flag>  (9) 
True

>  <standard_relation>  (9) 
=

>  <standard_text_value>  (9) 
nan

>  <standard_type>  (9) 
Ki

>  <standard_units>  (9) 
nM

>  <standard_upper_value>  (9) 
nan

>  <standard_value>  (9) 
316.23

>  <target_chembl_id>  (9) 
CHEMBL4121

>  <target_organism>  (9) 
Homo sapiens

>  <target_pref_name>  (9) 
CaM kinase II beta

>  <target_tax_id>  (9) 
9606

>  <text_value>  (9) 
nan

>  <toid>  (9) 
nan

>  <type>  (9) 
pKi

>  <units>  (9) 
nan

>  <uo_units>  (9) 
UO_0000065

>  <upper_value>  (9) 
nan

>  <value>  (9) 
6.5

>  <SMILES>  (9) 
NC1CCCCC1Nc2nccc(n2)c3c[nH]c4ncccc34

>  <NAME>  (9) 
CHEMBL1995813

>  <FILTER>  (9) 
OK

>  <MW>  (9) 
308.389

>  <LogP>  (9) 
2.7017

>  <HBD>  (9) 
3

>  <HBA>  (9) 
5

>  <TPSA>  (9) 
92.51

>  <Label>  (9) 
CAMK2B

$$$$
CHEMBL244378
     RDKit          2D

 26 29  0  0  0  0  0  0  0  0999 V2000
    4.8068    9.4767    0.0000 O   0  0  0  0  0  0  0  0  0  0  0  0
    3.3802    9.0132    0.0000 C   0  0  0  0  0  0  0  0  0  0  0  0
    2.2655   10.0169    0.0000 O   0  0  0  0  0  0  0  0  0  0  0  0
    3.0684    7.5459    0.0000 C   0  0  0  0  0  0  0  0  0  0  0  0
    4.1831    6.5422    0.0000 C   0  0  0  0  0  0  0  0  0  0  0  0
    3.8712    5.0750    0.0000 C   0  0  0  0  0  0  0  0  0  0  0  0
    2.4446    4.6115    0.0000 C   0  0  0  0  0  0  0  0  0  0  0  0
    1.3299    5.6152    0.0000 C   0  0  0  0  0  0  0  0  0  0  0  0
    1.6418    7.0824    0.0000 C   0  0  0  0  0  0  0  0  0  0  0  0
    0.5271    8.0861    0.0000 N   0  0  0  0  0  0  0  0  0  0  0  0
   -0.8995    7.6226    0.0000 C   0  0  0  0  0  0  0  0  0  0  0  0
   -2.0143    8.6263    0.0000 C   0  0  0  0  0  0  0  0  0  0  0  0
   -3.4408    8.1628    0.0000 C   0  0  0  0  0  0  0  0  0  0  0  0
   -3.7527    6.6955    0.0000 N   0  0  0  0  0  0  0  0  0  0  0  0
   -2.6380    5.6918    0.0000 C   0  0  0  0  0  0  0  0  0  0  0  0
   -2.9499    4.2246    0.0000 N   0  0  0  0  0  0  0  0  0  0  0  0
   -1.8351    3.2209    0.0000 C   0  0  0  0  0  0  0  0  0  0  0  0
   -0.4086    3.6844    0.0000 C   0  0  0  0  0  0  0  0  0  0  0  0
    0.7062    2.6807    0.0000 C   0  0  0  0  0  0  0  0  0  0  0  0
    0.3943    1.2135    0.0000 C   0  0  0  0  0  0  0  0  0  0  0  0
    1.2760    0.0000    0.0000 C   0  0  0  0  0  0  0  0  0  0  0  0
    0.3943   -1.2135    0.0000 N   0  0  0  0  0  0  0  0  0  0  0  0
   -1.0323   -0.7500    0.0000 N   0  0  0  0  0  0  0  0  0  0  0  0
   -1.0323    0.7500    0.0000 C   0  0  0  0  0  0  0  0  0  0  0  0
   -2.1470    1.7537    0.0000 C   0  0  0  0  0  0  0  0  0  0  0  0
   -1.2114    6.1554    0.0000 N   0  0  0  0  0  0  0  0  0  0  0  0
  1  2  1  0
  2  3  2  0
  2  4  1  0
  4  5  2  0
  5  6  1  0
  6  7  2  0
  7  8  1  0
  8  9  2  0
  9 10  1  0
 10 11  1  0
 11 12  2  0
 12 13  1  0
 13 14  2  0
 14 15  1  0
 15 16  1  0
 16 17  1  0
 17 18  2  0
 18 19  1  0
 19 20  2  0
 20 21  1  0
 21 22  2  0
 22 23  1  0
 23 24  1  0
 24 25  2  0
 15 26  2  0
  9  4  1  0
 26 11  1  0
 25 17  1  0
 24 20  1  0
M  END
>  <activity_comment>  (10) 
active

>  <activity_id>  (10) 
9618760

>  <activity_properties>  (10) 
[]

>  <assay_chembl_id>  (10) 
CHEMBL1963787

>  <assay_description>  (10) 
PUBCHEM_BIOASSAY: Navigating the Kinome. (Class of assay: other) Panel member name: CAMK2B

>  <assay_type>  (10) 
F

>  <bao_endpoint>  (10) 
BAO_0000192

>  <bao_format>  (10) 
BAO_0000019

>  <bao_label>  (10) 
assay format

>  <canonical_smiles>  (10) 
OC(=O)c1ccccc1Nc2ccnc(Nc3ccc4cn[nH]c4c3)n2

>  <data_validity_comment>  (10) 
nan

>  <data_validity_description>  (10) 
nan

>  <document_chembl_id>  (10) 
CHEMBL1201862

>  <document_journal>  (10) 
nan

>  <document_year>  (10) 
nan

>  <ligand_efficiency>  (10) 
nan

>  <molecule_pref_name>  (10) 
nan

>  <parent_molecule_chembl_id>  (10) 
CHEMBL244378

>  <pchembl_value>  (10) 
5.3

>  <potential_duplicate>  (10) 
False

>  <qudt_units>  (10) 
http://www.openphacts.org/units/Nanomolar

>  <record_id>  (10) 
1584486

>  <relation>  (10) 
=

>  <src_id>  (10) 
7

>  <standard_flag>  (10) 
True

>  <standard_relation>  (10) 
=

>  <standard_text_value>  (10) 
nan

>  <standard_type>  (10) 
Ki

>  <standard_units>  (10) 
nM

>  <standard_upper_value>  (10) 
nan

>  <standard_value>  (10) 
5011.87

>  <target_chembl_id>  (10) 
CHEMBL4121

>  <target_organism>  (10) 
Homo sapiens

>  <target_pref_name>  (10) 
CaM kinase II beta

>  <target_tax_id>  (10) 
9606

>  <text_value>  (10) 
nan

>  <toid>  (10) 
nan

>  <type>  (10) 
pKi

>  <units>  (10) 
nan

>  <uo_units>  (10) 
UO_0000065

>  <upper_value>  (10) 
nan

>  <value>  (10) 
5.3

>  <SMILES>  (10) 
OC(=O)c1ccccc1Nc2ccnc(Nc3ccc4cn[nH]c4c3)n2

>  <NAME>  (10) 
CHEMBL244378

>  <FILTER>  (10) 
OK

>  <MW>  (10) 
346.35

>  <LogP>  (10) 
3.5383

>  <HBD>  (10) 
4

>  <HBA>  (10) 
6

>  <TPSA>  (10) 
115.82

>  <Label>  (10) 
CAMK2B

$$$$
CHEMBL362558
     RDKit          2D

 38 44  0  0  0  0  0  0  0  0999 V2000
    2.6761    4.9840    0.0000 F   0  0  0  0  0  0  0  0  0  0  0  0
    1.6559    3.8844    0.0000 C   0  0  0  0  0  0  0  0  0  0  0  0
    2.0980    2.4510    0.0000 C   0  0  0  0  0  0  0  0  0  0  0  0
    1.0777    1.3515    0.0000 C   0  0  0  0  0  0  0  0  0  0  0  0
    1.7286    0.0000    0.0000 C   0  0  0  0  0  0  0  0  0  0  0  0
    1.0777   -1.3515    0.0000 N   0  0  0  0  0  0  0  0  0  0  0  0
   -0.3846   -1.6852    0.0000 C   0  0  0  0  0  0  0  0  0  0  0  0
   -1.5574   -0.7500    0.0000 C   0  0  0  0  0  0  0  0  0  0  0  0
   -1.5574    0.7500    0.0000 N   0  0  0  0  0  0  0  0  0  0  0  0
   -2.7840    1.6134    0.0000 C   0  0  0  0  0  0  0  0  0  0  0  0
   -2.3418    3.0468    0.0000 C   0  0  0  0  0  0  0  0  0  0  0  0
   -3.2416    4.2470    0.0000 C   0  0  0  0  0  0  0  0  0  0  0  0
   -4.7414    4.2245    0.0000 C   0  0  0  0  0  0  0  0  0  0  0  0
   -5.2262    5.6440    0.0000 C   0  0  0  0  0  0  0  0  0  0  0  0
   -6.6596    6.0862    0.0000 O   0  0  0  0  0  0  0  0  0  0  0  0
   -4.0260    6.5438    0.0000 N   0  0  0  0  0  0  0  0  0  0  0  0
   -2.7994    5.6803    0.0000 C   0  0  0  0  0  0  0  0  0  0  0  0
   -1.3799    6.1652    0.0000 O   0  0  0  0  0  0  0  0  0  0  0  0
   -5.6048    2.9980    0.0000 C   0  0  0  0  0  0  0  0  0  0  0  0
   -5.1200    1.5785    0.0000 C   0  0  0  0  0  0  0  0  0  0  0  0
   -6.3202    0.6787    0.0000 N   0  0  0  0  0  0  0  0  0  0  0  0
   -7.5468    1.5422    0.0000 C   0  0  0  0  0  0  0  0  0  0  0  0
   -9.0092    1.2084    0.0000 C   0  0  0  0  0  0  0  0  0  0  0  0
  -10.0294    2.3080    0.0000 C   0  0  0  0  0  0  0  0  0  0  0  0
   -9.5873    3.7413    0.0000 C   0  0  0  0  0  0  0  0  0  0  0  0
   -8.1249    4.0751    0.0000 C   0  0  0  0  0  0  0  0  0  0  0  0
   -7.1047    2.9755    0.0000 N   0  0  0  0  0  0  0  0  0  0  0  0
   -0.8268    3.1186    0.0000 C   0  0  0  0  0  0  0  0  0  0  0  0
    0.1935    4.2182    0.0000 C   0  0  0  0  0  0  0  0  0  0  0  0
   -0.3846    1.6852    0.0000 C   0  0  0  0  0  0  0  0  0  0  0  0
    2.0130   -2.5242    0.0000 C   0  0  0  0  0  0  0  0  0  0  0  0
    3.4962   -2.3006    0.0000 O   0  0  0  0  0  0  0  0  0  0  0  0
    1.4650   -3.9205    0.0000 N   0  0  0  0  0  0  0  0  0  0  0  0
   -0.0183   -4.1441    0.0000 C   0  0  0  0  0  0  0  0  0  0  0  0
   -0.5663   -5.5404    0.0000 C   0  0  0  0  0  0  0  0  0  0  0  0
    0.3689   -6.7131    0.0000 C   0  0  0  0  0  0  0  0  0  0  0  0
    1.8522   -6.4896    0.0000 C   0  0  0  0  0  0  0  0  0  0  0  0
    2.4002   -5.0933    0.0000 C   0  0  0  0  0  0  0  0  0  0  0  0
  1  2  1  0
  2  3  2  0
  3  4  1  0
  4  5  1  0
  5  6  1  0
  6  7  1  0
  7  8  1  0
  8  9  1  0
  9 10  1  0
 10 11  2  0
 11 12  1  0
 12 13  2  0
 13 14  1  0
 14 15  2  0
 14 16  1  0
 16 17  1  0
 17 18  2  0
 13 19  1  0
 19 20  2  0
 20 21  1  0
 21 22  2  0
 22 23  1  0
 23 24  2  0
 24 25  1  0
 25 26  2  0
 26 27  1  0
 11 28  1  0
 28 29  2  0
 28 30  1  0
  6 31  1  0
 31 32  2  0
 31 33  1  0
 33 34  1  0
 34 35  1  0
 35 36  1  0
 36 37  1  0
 37 38  1  0
 29  2  1  0
 30  4  2  0
 30  9  1  0
 17 12  1  0
 27 19  1  0
 27 22  1  0
 38 33  1  0
M  END
>  <activity_comment>  (11) 
active

>  <activity_id>  (11) 
9618761

>  <activity_properties>  (11) 
[]

>  <assay_chembl_id>  (11) 
CHEMBL1963787

>  <assay_description>  (11) 
PUBCHEM_BIOASSAY: Navigating the Kinome. (Class of assay: other) Panel member name: CAMK2B

>  <assay_type>  (11) 
F

>  <bao_endpoint>  (11) 
BAO_0000192

>  <bao_format>  (11) 
BAO_0000019

>  <bao_label>  (11) 
assay format

>  <canonical_smiles>  (11) 
Fc1cc2CN(CCn3cc(C4=C(C(=O)NC4=O)c5cnc6ccccn56)c(c1)c23)C(=O)N7CCCCC7

>  <data_validity_comment>  (11) 
nan

>  <data_validity_description>  (11) 
nan

>  <document_chembl_id>  (11) 
CHEMBL1201862

>  <document_journal>  (11) 
nan

>  <document_year>  (11) 
nan

>  <ligand_efficiency>  (11) 
nan

>  <molecule_pref_name>  (11) 
LY-2090314

>  <parent_molecule_chembl_id>  (11) 
CHEMBL362558

>  <pchembl_value>  (11) 
5.2

>  <potential_duplicate>  (11) 
False

>  <qudt_units>  (11) 
http://www.openphacts.org/units/Nanomolar

>  <record_id>  (11) 
1585446

>  <relation>  (11) 
=

>  <src_id>  (11) 
7

>  <standard_flag>  (11) 
True

>  <standard_relation>  (11) 
=

>  <standard_text_value>  (11) 
nan

>  <standard_type>  (11) 
Ki

>  <standard_units>  (11) 
nM

>  <standard_upper_value>  (11) 
nan

>  <standard_value>  (11) 
6309.57

>  <target_chembl_id>  (11) 
CHEMBL4121

>  <target_organism>  (11) 
Homo sapiens

>  <target_pref_name>  (11) 
CaM kinase II beta

>  <target_tax_id>  (11) 
9606

>  <text_value>  (11) 
nan

>  <toid>  (11) 
nan

>  <type>  (11) 
pKi

>  <units>  (11) 
nan

>  <uo_units>  (11) 
UO_0000065

>  <upper_value>  (11) 
nan

>  <value>  (11) 
5.2

>  <SMILES>  (11) 
Fc1cc2CN(CCn3cc(C4=C(C(=O)NC4=O)c5cnc6ccccn56)c(c1)c23)C(=O)N7CCCCC7

>  <NAME>  (11) 
CHEMBL362558

>  <FILTER>  (11) 
OK

>  <MW>  (11) 
512.545

>  <LogP>  (11) 
3.4168

>  <HBD>  (11) 
1

>  <HBA>  (11) 
6

>  <TPSA>  (11) 
91.95

>  <Label>  (11) 
CAMK2B

$$$$
CHEMBL1986943
     RDKit          2D

 24 27  0  0  0  0  0  0  0  0999 V2000
   -5.0487    4.2236    0.0000 O   0  0  0  0  0  0  0  0  0  0  0  0
   -5.3605    2.7564    0.0000 C   0  0  0  0  0  0  0  0  0  0  0  0
   -4.2458    1.7527    0.0000 C   0  0  0  0  0  0  0  0  0  0  0  0
   -4.5577    0.2855    0.0000 C   0  0  0  0  0  0  0  0  0  0  0  0
   -5.9843   -0.1781    0.0000 C   0  0  0  0  0  0  0  0  0  0  0  0
   -7.0990    0.8256    0.0000 C   0  0  0  0  0  0  0  0  0  0  0  0
   -6.7871    2.2929    0.0000 C   0  0  0  0  0  0  0  0  0  0  0  0
   -6.2961   -1.6453    0.0000 N   0  0  0  0  0  0  0  0  0  0  0  0
   -5.1814   -2.6490    0.0000 C   0  0  0  0  0  0  0  0  0  0  0  0
   -5.4933   -4.1162    0.0000 N   0  0  0  0  0  0  0  0  0  0  0  0
   -4.3786   -5.1199    0.0000 C   0  0  0  0  0  0  0  0  0  0  0  0
   -4.6904   -6.5871    0.0000 Cl  0  0  0  0  0  0  0  0  0  0  0  0
   -2.9520   -4.6564    0.0000 C   0  0  0  0  0  0  0  0  0  0  0  0
   -2.6401   -3.1891    0.0000 C   0  0  0  0  0  0  0  0  0  0  0  0
   -3.7548   -2.1855    0.0000 N   0  0  0  0  0  0  0  0  0  0  0  0
   -1.2135   -2.7256    0.0000 C   0  0  0  0  0  0  0  0  0  0  0  0
    0.0000   -3.6073    0.0000 C   0  0  0  0  0  0  0  0  0  0  0  0
    1.2135   -2.7256    0.0000 N   0  0  0  0  0  0  0  0  0  0  0  0
    0.7500   -1.2990    0.0000 C   0  0  0  0  0  0  0  0  0  0  0  0
    1.5000    0.0000    0.0000 N   0  0  0  0  0  0  0  0  0  0  0  0
    0.7500    1.2990    0.0000 C   0  0  0  0  0  0  0  0  0  0  0  0
   -0.7500    1.2990    0.0000 C   0  0  0  0  0  0  0  0  0  0  0  0
   -1.5000    0.0000    0.0000 C   0  0  0  0  0  0  0  0  0  0  0  0
   -0.7500   -1.2990    0.0000 C   0  0  0  0  0  0  0  0  0  0  0  0
  1  2  1  0
  2  3  1  0
  3  4  1  0
  4  5  1  0
  5  6  1  0
  6  7  1  0
  5  8  1  0
  8  9  1  0
  9 10  2  0
 10 11  1  0
 11 12  1  0
 11 13  2  0
 13 14  1  0
 14 15  2  0
 14 16  1  0
 16 17  2  0
 17 18  1  0
 18 19  1  0
 19 20  2  0
 20 21  1  0
 21 22  2  0
 22 23  1  0
 23 24  2  0
  7  2  1  0
 15  9  1  0
 24 16  1  0
 24 19  1  0
M  END
>  <activity_comment>  (12) 
active

>  <activity_id>  (12) 
9618764

>  <activity_properties>  (12) 
[]

>  <assay_chembl_id>  (12) 
CHEMBL1963787

>  <assay_description>  (12) 
PUBCHEM_BIOASSAY: Navigating the Kinome. (Class of assay: other) Panel member name: CAMK2B

>  <assay_type>  (12) 
F

>  <bao_endpoint>  (12) 
BAO_0000192

>  <bao_format>  (12) 
BAO_0000019

>  <bao_label>  (12) 
assay format

>  <canonical_smiles>  (12) 
OC1CCC(CC1)Nc2nc(Cl)cc(n2)c3c[nH]c4ncccc34

>  <data_validity_comment>  (12) 
nan

>  <data_validity_description>  (12) 
nan

>  <document_chembl_id>  (12) 
CHEMBL1201862

>  <document_journal>  (12) 
nan

>  <document_year>  (12) 
nan

>  <ligand_efficiency>  (12) 
nan

>  <molecule_pref_name>  (12) 
nan

>  <parent_molecule_chembl_id>  (12) 
CHEMBL1986943

>  <pchembl_value>  (12) 
7.0

>  <potential_duplicate>  (12) 
False

>  <qudt_units>  (12) 
http://www.openphacts.org/units/Nanomolar

>  <record_id>  (12) 
1584071

>  <relation>  (12) 
=

>  <src_id>  (12) 
7

>  <standard_flag>  (12) 
True

>  <standard_relation>  (12) 
=

>  <standard_text_value>  (12) 
nan

>  <standard_type>  (12) 
Ki

>  <standard_units>  (12) 
nM

>  <standard_upper_value>  (12) 
nan

>  <standard_value>  (12) 
100.0

>  <target_chembl_id>  (12) 
CHEMBL4121

>  <target_organism>  (12) 
Homo sapiens

>  <target_pref_name>  (12) 
CaM kinase II beta

>  <target_tax_id>  (12) 
9606

>  <text_value>  (12) 
nan

>  <toid>  (12) 
nan

>  <type>  (12) 
pKi

>  <units>  (12) 
nan

>  <uo_units>  (12) 
UO_0000065

>  <upper_value>  (12) 
nan

>  <value>  (12) 
7.0

>  <SMILES>  (12) 
OC1CCC(CC1)Nc2nc(Cl)cc(n2)c3c[nH]c4ncccc34

>  <NAME>  (12) 
CHEMBL1986943

>  <FILTER>  (12) 
OK

>  <MW>  (12) 
343.818

>  <LogP>  (12) 
3.3887

>  <HBD>  (12) 
3

>  <HBA>  (12) 
5

>  <TPSA>  (12) 
86.72

>  <Label>  (12) 
CAMK2B

$$$$
CHEMBL2006263
     RDKit          2D

 23 25  0  0  0  0  0  0  0  0999 V2000
    1.5000   -5.1962    0.0000 C   0  0  0  0  0  0  0  0  0  0  0  0
    0.7500   -3.8971    0.0000 C   0  0  0  0  0  0  0  0  0  0  0  0
    1.5000   -2.5981    0.0000 N   0  0  0  0  0  0  0  0  0  0  0  0
    0.7500   -1.2990    0.0000 C   0  0  0  0  0  0  0  0  0  0  0  0
    1.5000    0.0000    0.0000 C   0  0  0  0  0  0  0  0  0  0  0  0
    0.7500    1.2990    0.0000 C   0  0  0  0  0  0  0  0  0  0  0  0
   -0.7500    1.2990    0.0000 C   0  0  0  0  0  0  0  0  0  0  0  0
   -1.5000    2.5981    0.0000 N   0  0  0  0  0  0  0  0  0  0  0  0
   -0.7500    3.8971    0.0000 S   0  0  0  0  0  0  0  0  0  0  0  0
    0.5490    3.1471    0.0000 O   0  0  0  0  0  0  0  0  0  0  0  0
   -2.0490    4.6471    0.0000 O   0  0  0  0  0  0  0  0  0  0  0  0
    0.0000    5.1962    0.0000 C   0  0  0  0  0  0  0  0  0  0  0  0
    1.5000    5.1962    0.0000 C   0  0  0  0  0  0  0  0  0  0  0  0
    2.2500    6.4952    0.0000 C   0  0  0  0  0  0  0  0  0  0  0  0
    1.5000    7.7942    0.0000 C   0  0  0  0  0  0  0  0  0  0  0  0
    2.2500    9.0933    0.0000 N   0  0  0  0  0  0  0  0  0  0  0  0
    0.0000    7.7942    0.0000 C   0  0  0  0  0  0  0  0  0  0  0  0
   -0.7500    6.4952    0.0000 C   0  0  0  0  0  0  0  0  0  0  0  0
   -1.5000    0.0000    0.0000 C   0  0  0  0  0  0  0  0  0  0  0  0
   -0.7500   -1.2990    0.0000 C   0  0  0  0  0  0  0  0  0  0  0  0
   -1.5000   -2.5981    0.0000 N   0  0  0  0  0  0  0  0  0  0  0  0
   -0.7500   -3.8971    0.0000 C   0  0  0  0  0  0  0  0  0  0  0  0
   -1.5000   -5.1962    0.0000 C   0  0  0  0  0  0  0  0  0  0  0  0
  1  2  1  0
  2  3  2  0
  3  4  1  0
  4  5  2  0
  5  6  1  0
  6  7  2  0
  7  8  1  0
  8  9  1  0
  9 10  2  0
  9 11  2  0
  9 12  1  0
 12 13  2  0
 13 14  1  0
 14 15  2  0
 15 16  1  0
 15 17  1  0
 17 18  2  0
  7 19  1  0
 19 20  2  0
 20 21  1  0
 21 22  2  0
 22 23  1  0
 22  2  1  0
 20  4  1  0
 18 12  1  0
M  END
>  <activity_comment>  (13) 
active

>  <activity_id>  (13) 
9618765

>  <activity_properties>  (13) 
[]

>  <assay_chembl_id>  (13) 
CHEMBL1963787

>  <assay_description>  (13) 
PUBCHEM_BIOASSAY: Navigating the Kinome. (Class of assay: other) Panel member name: CAMK2B

>  <assay_type>  (13) 
F

>  <bao_endpoint>  (13) 
BAO_0000192

>  <bao_format>  (13) 
BAO_0000019

>  <bao_label>  (13) 
assay format

>  <canonical_smiles>  (13) 
Cc1nc2ccc(NS(=O)(=O)c3ccc(N)cc3)cc2nc1C

>  <data_validity_comment>  (13) 
nan

>  <data_validity_description>  (13) 
nan

>  <document_chembl_id>  (13) 
CHEMBL1201862

>  <document_journal>  (13) 
nan

>  <document_year>  (13) 
nan

>  <ligand_efficiency>  (13) 
nan

>  <molecule_pref_name>  (13) 
nan

>  <parent_molecule_chembl_id>  (13) 
CHEMBL2006263

>  <pchembl_value>  (13) 
5.2

>  <potential_duplicate>  (13) 
False

>  <qudt_units>  (13) 
http://www.openphacts.org/units/Nanomolar

>  <record_id>  (13) 
1584832

>  <relation>  (13) 
=

>  <src_id>  (13) 
7

>  <standard_flag>  (13) 
True

>  <standard_relation>  (13) 
=

>  <standard_text_value>  (13) 
nan

>  <standard_type>  (13) 
Ki

>  <standard_units>  (13) 
nM

>  <standard_upper_value>  (13) 
nan

>  <standard_value>  (13) 
6309.57

>  <target_chembl_id>  (13) 
CHEMBL4121

>  <target_organism>  (13) 
Homo sapiens

>  <target_pref_name>  (13) 
CaM kinase II beta

>  <target_tax_id>  (13) 
9606

>  <text_value>  (13) 
nan

>  <toid>  (13) 
nan

>  <type>  (13) 
pKi

>  <units>  (13) 
nan

>  <uo_units>  (13) 
UO_0000065

>  <upper_value>  (13) 
nan

>  <value>  (13) 
5.2

>  <SMILES>  (13) 
Cc1nc2ccc(NS(=O)(=O)c3ccc(N)cc3)cc2nc1C

>  <NAME>  (13) 
CHEMBL2006263

>  <FILTER>  (13) 
OK

>  <MW>  (13) 
328.397

>  <LogP>  (13) 
2.62964

>  <HBD>  (13) 
2

>  <HBA>  (13) 
5

>  <TPSA>  (13) 
97.97

>  <Label>  (13) 
CAMK2B

$$$$
CHEMBL1986263
     RDKit          2D

 24 26  0  0  0  0  0  0  0  0999 V2000
    0.4775   -7.0740    0.0000 C   0  0  0  0  0  0  0  0  0  0  0  0
    1.8478   -6.4639    0.0000 C   0  0  0  0  0  0  0  0  0  0  0  0
    2.0046   -4.9721    0.0000 N   0  0  0  0  0  0  0  0  0  0  0  0
    3.3037   -4.2221    0.0000 C   0  0  0  0  0  0  0  0  0  0  0  0
    4.6740   -4.8322    0.0000 O   0  0  0  0  0  0  0  0  0  0  0  0
    2.9918   -2.7549    0.0000 S   0  0  0  0  0  0  0  0  0  0  0  0
    1.5000   -2.5981    0.0000 C   0  0  0  0  0  0  0  0  0  0  0  0
    0.8899   -3.9684    0.0000 C   0  0  0  0  0  0  0  0  0  0  0  0
   -0.5773   -4.2803    0.0000 C   0  0  0  0  0  0  0  0  0  0  0  0
    0.7500   -1.2990    0.0000 C   0  0  0  0  0  0  0  0  0  0  0  0
    1.5000    0.0000    0.0000 C   0  0  0  0  0  0  0  0  0  0  0  0
    0.7500    1.2990    0.0000 C   0  0  0  0  0  0  0  0  0  0  0  0
   -0.7500    1.2990    0.0000 N   0  0  0  0  0  0  0  0  0  0  0  0
   -1.5000    0.0000    0.0000 C   0  0  0  0  0  0  0  0  0  0  0  0
   -3.0000    0.0000    0.0000 N   0  0  0  0  0  0  0  0  0  0  0  0
   -3.7500    1.2990    0.0000 C   0  0  0  0  0  0  0  0  0  0  0  0
   -3.0000    2.5981    0.0000 C   0  0  0  0  0  0  0  0  0  0  0  0
   -3.7500    3.8971    0.0000 C   0  0  0  0  0  0  0  0  0  0  0  0
   -5.2500    3.8971    0.0000 C   0  0  0  0  0  0  0  0  0  0  0  0
   -6.0000    2.5981    0.0000 C   0  0  0  0  0  0  0  0  0  0  0  0
   -7.5000    2.5981    0.0000 O   0  0  0  0  0  0  0  0  0  0  0  0
   -8.2500    3.8971    0.0000 C   0  0  0  0  0  0  0  0  0  0  0  0
   -5.2500    1.2990    0.0000 C   0  0  0  0  0  0  0  0  0  0  0  0
   -0.7500   -1.2990    0.0000 N   0  0  0  0  0  0  0  0  0  0  0  0
  1  2  1  0
  2  3  1  0
  3  4  1  0
  4  5  2  0
  4  6  1  0
  6  7  1  0
  7  8  2  0
  8  9  1  0
  7 10  1  0
 10 11  2  0
 11 12  1  0
 12 13  2  0
 13 14  1  0
 14 15  1  0
 15 16  1  0
 16 17  2  0
 17 18  1  0
 18 19  2  0
 19 20  1  0
 20 21  1  0
 21 22  1  0
 20 23  2  0
 14 24  2  0
  8  3  1  0
 24 10  1  0
 23 16  1  0
M  END
>  <activity_comment>  (14) 
active

>  <activity_id>  (14) 
9618768

>  <activity_properties>  (14) 
[]

>  <assay_chembl_id>  (14) 
CHEMBL1963787

>  <assay_description>  (14) 
PUBCHEM_BIOASSAY: Navigating the Kinome. (Class of assay: other) Panel member name: CAMK2B

>  <assay_type>  (14) 
F

>  <bao_endpoint>  (14) 
BAO_0000192

>  <bao_format>  (14) 
BAO_0000019

>  <bao_label>  (14) 
assay format

>  <canonical_smiles>  (14) 
CCN1C(=O)SC(=C1C)c2ccnc(Nc3cccc(OC)c3)n2

>  <data_validity_comment>  (14) 
nan

>  <data_validity_description>  (14) 
nan

>  <document_chembl_id>  (14) 
CHEMBL1201862

>  <document_journal>  (14) 
nan

>  <document_year>  (14) 
nan

>  <ligand_efficiency>  (14) 
nan

>  <molecule_pref_name>  (14) 
nan

>  <parent_molecule_chembl_id>  (14) 
CHEMBL1986263

>  <pchembl_value>  (14) 
5.4

>  <potential_duplicate>  (14) 
False

>  <qudt_units>  (14) 
http://www.openphacts.org/units/Nanomolar

>  <record_id>  (14) 
1584531

>  <relation>  (14) 
=

>  <src_id>  (14) 
7

>  <standard_flag>  (14) 
True

>  <standard_relation>  (14) 
=

>  <standard_text_value>  (14) 
nan

>  <standard_type>  (14) 
Ki

>  <standard_units>  (14) 
nM

>  <standard_upper_value>  (14) 
nan

>  <standard_value>  (14) 
3981.07

>  <target_chembl_id>  (14) 
CHEMBL4121

>  <target_organism>  (14) 
Homo sapiens

>  <target_pref_name>  (14) 
CaM kinase II beta

>  <target_tax_id>  (14) 
9606

>  <text_value>  (14) 
nan

>  <toid>  (14) 
nan

>  <type>  (14) 
pKi

>  <units>  (14) 
nan

>  <uo_units>  (14) 
UO_0000065

>  <upper_value>  (14) 
nan

>  <value>  (14) 
5.4

>  <SMILES>  (14) 
CCN1C(=O)SC(=C1C)c2ccnc(Nc3cccc(OC)c3)n2

>  <NAME>  (14) 
CHEMBL1986263

>  <FILTER>  (14) 
OK

>  <MW>  (14) 
342.424

>  <LogP>  (14) 
3.44732

>  <HBD>  (14) 
1

>  <HBA>  (14) 
7

>  <TPSA>  (14) 
69.04

>  <Label>  (14) 
CAMK2B

$$$$
CHEMBL2000114
     RDKit          2D

 16 17  0  0  0  0  0  0  0  0999 V2000
   -2.9520   -4.6564    0.0000 C   0  0  0  0  0  0  0  0  0  0  0  0
   -2.6401   -3.1891    0.0000 S   0  0  0  0  0  0  0  0  0  0  0  0
   -1.2135   -2.7256    0.0000 C   0  0  0  0  0  0  0  0  0  0  0  0
   -0.0000   -3.6073    0.0000 C   0  0  0  0  0  0  0  0  0  0  0  0
    1.2135   -2.7256    0.0000 N   0  0  0  0  0  0  0  0  0  0  0  0
    0.7500   -1.2990    0.0000 C   0  0  0  0  0  0  0  0  0  0  0  0
    1.5000    0.0000    0.0000 N   0  0  0  0  0  0  0  0  0  0  0  0
    0.7500    1.2990    0.0000 C   0  0  0  0  0  0  0  0  0  0  0  0
   -0.7500    1.2990    0.0000 N   0  0  0  0  0  0  0  0  0  0  0  0
   -1.5000    0.0000    0.0000 C   0  0  0  0  0  0  0  0  0  0  0  0
   -3.0000    0.0000    0.0000 N   0  0  0  0  0  0  0  0  0  0  0  0
   -3.7500    1.2990    0.0000 C   0  0  0  0  0  0  0  0  0  0  0  0
   -5.2500    1.2990    0.0000 C   0  0  0  0  0  0  0  0  0  0  0  0
   -6.0000    2.5981    0.0000 C   0  0  0  0  0  0  0  0  0  0  0  0
   -7.5000    2.5981    0.0000 O   0  0  0  0  0  0  0  0  0  0  0  0
   -0.7500   -1.2990    0.0000 C   0  0  0  0  0  0  0  0  0  0  0  0
  1  2  1  0
  2  3  1  0
  3  4  2  0
  4  5  1  0
  5  6  1  0
  6  7  2  0
  7  8  1  0
  8  9  2  0
  9 10  1  0
 10 11  1  0
 11 12  1  0
 12 13  1  0
 13 14  1  0
 14 15  1  0
 10 16  2  0
 16  3  1  0
 16  6  1  0
M  END
>  <activity_comment>  (15) 
active

>  <activity_id>  (15) 
9618769

>  <activity_properties>  (15) 
[]

>  <assay_chembl_id>  (15) 
CHEMBL1963787

>  <assay_description>  (15) 
PUBCHEM_BIOASSAY: Navigating the Kinome. (Class of assay: other) Panel member name: CAMK2B

>  <assay_type>  (15) 
F

>  <bao_endpoint>  (15) 
BAO_0000192

>  <bao_format>  (15) 
BAO_0000019

>  <bao_label>  (15) 
assay format

>  <canonical_smiles>  (15) 
CSc1c[nH]c2ncnc(NCCCO)c12

>  <data_validity_comment>  (15) 
nan

>  <data_validity_description>  (15) 
nan

>  <document_chembl_id>  (15) 
CHEMBL1201862

>  <document_journal>  (15) 
nan

>  <document_year>  (15) 
nan

>  <ligand_efficiency>  (15) 
nan

>  <molecule_pref_name>  (15) 
nan

>  <parent_molecule_chembl_id>  (15) 
CHEMBL2000114

>  <pchembl_value>  (15) 
5.2

>  <potential_duplicate>  (15) 
False

>  <qudt_units>  (15) 
http://www.openphacts.org/units/Nanomolar

>  <record_id>  (15) 
1584386

>  <relation>  (15) 
=

>  <src_id>  (15) 
7

>  <standard_flag>  (15) 
True

>  <standard_relation>  (15) 
=

>  <standard_text_value>  (15) 
nan

>  <standard_type>  (15) 
Ki

>  <standard_units>  (15) 
nM

>  <standard_upper_value>  (15) 
nan

>  <standard_value>  (15) 
6309.57

>  <target_chembl_id>  (15) 
CHEMBL4121

>  <target_organism>  (15) 
Homo sapiens

>  <target_pref_name>  (15) 
CaM kinase II beta

>  <target_tax_id>  (15) 
9606

>  <text_value>  (15) 
nan

>  <toid>  (15) 
nan

>  <type>  (15) 
pKi

>  <units>  (15) 
nan

>  <uo_units>  (15) 
UO_0000065

>  <upper_value>  (15) 
nan

>  <value>  (15) 
5.2

>  <SMILES>  (15) 
CSc1c[nH]c2ncnc(NCCCO)c12

>  <NAME>  (15) 
CHEMBL2000114

>  <FILTER>  (15) 
OK

>  <MW>  (15) 
238.316

>  <LogP>  (15) 
1.4741

>  <HBD>  (15) 
3

>  <HBA>  (15) 
5

>  <TPSA>  (15) 
73.83

>  <Label>  (15) 
CAMK2B

$$$$
CHEMBL1968380
     RDKit          2D

 38 42  0  0  0  0  0  0  0  0999 V2000
    0.7500   -6.4952    0.0000 C   0  0  0  0  0  0  0  0  0  0  0  0
    1.5000   -5.1962    0.0000 C   0  0  0  0  0  0  0  0  0  0  0  0
    0.7500   -3.8971    0.0000 C   0  0  0  0  0  0  0  0  0  0  0  0
    1.5000   -2.5981    0.0000 N   0  0  0  0  0  0  0  0  0  0  0  0
    3.0000   -2.5981    0.0000 C   0  0  0  0  0  0  0  0  0  0  0  0
    3.8817   -1.3846    0.0000 C   0  0  0  0  0  0  0  0  0  0  0  0
    5.3083   -1.8481    0.0000 C   0  0  0  0  0  0  0  0  0  0  0  0
    5.3083   -3.3481    0.0000 C   0  0  0  0  0  0  0  0  0  0  0  0
    3.8817   -3.8116    0.0000 C   0  0  0  0  0  0  0  0  0  0  0  0
    0.7500   -1.2990    0.0000 C   0  0  0  0  0  0  0  0  0  0  0  0
    1.5000    0.0000    0.0000 N   0  0  0  0  0  0  0  0  0  0  0  0
    0.7500    1.2990    0.0000 C   0  0  0  0  0  0  0  0  0  0  0  0
    1.5000    2.5981    0.0000 N   0  0  0  0  0  0  0  0  0  0  0  0
    3.0000    2.5981    0.0000 C   0  0  0  0  0  0  0  0  0  0  0  0
    3.7500    1.2990    0.0000 C   0  0  0  0  0  0  0  0  0  0  0  0
    5.2500    1.2990    0.0000 C   0  0  0  0  0  0  0  0  0  0  0  0
    6.0000    2.5981    0.0000 C   0  0  0  0  0  0  0  0  0  0  0  0
    5.2500    3.8971    0.0000 C   0  0  0  0  0  0  0  0  0  0  0  0
    3.7500    3.8971    0.0000 C   0  0  0  0  0  0  0  0  0  0  0  0
    3.0000    5.1962    0.0000 O   0  0  0  0  0  0  0  0  0  0  0  0
    3.7500    6.4952    0.0000 C   0  0  0  0  0  0  0  0  0  0  0  0
    7.5000    2.5981    0.0000 C   0  0  0  0  0  0  0  0  0  0  0  0
    8.2500    3.8971    0.0000 O   0  0  0  0  0  0  0  0  0  0  0  0
    8.2500    1.2990    0.0000 N   0  0  0  0  0  0  0  0  0  0  0  0
    9.7500    1.2990    0.0000 C   0  0  0  0  0  0  0  0  0  0  0  0
   10.5000   -0.0000    0.0000 C   0  0  0  0  0  0  0  0  0  0  0  0
   12.0000   -0.0000    0.0000 C   0  0  0  0  0  0  0  0  0  0  0  0
   12.7500    1.2990    0.0000 N   0  0  0  0  0  0  0  0  0  0  0  0
   14.2500    1.2990    0.0000 C   0  0  0  0  0  0  0  0  0  0  0  0
   12.0000    2.5981    0.0000 C   0  0  0  0  0  0  0  0  0  0  0  0
   10.5000    2.5981    0.0000 C   0  0  0  0  0  0  0  0  0  0  0  0
   -0.7500    1.2990    0.0000 N   0  0  0  0  0  0  0  0  0  0  0  0
   -1.5000    0.0000    0.0000 C   0  0  0  0  0  0  0  0  0  0  0  0
   -0.7500   -1.2990    0.0000 C   0  0  0  0  0  0  0  0  0  0  0  0
   -1.5000   -2.5981    0.0000 N   0  0  0  0  0  0  0  0  0  0  0  0
   -3.0000   -2.5981    0.0000 C   0  0  0  0  0  0  0  0  0  0  0  0
   -0.7500   -3.8971    0.0000 C   0  0  0  0  0  0  0  0  0  0  0  0
   -1.5000   -5.1962    0.0000 O   0  0  0  0  0  0  0  0  0  0  0  0
  1  2  1  0
  2  3  1  0
  3  4  1  0
  4  5  1  0
  5  6  1  0
  6  7  1  0
  7  8  1  0
  8  9  1  0
  4 10  1  0
 10 11  2  0
 11 12  1  0
 12 13  1  0
 13 14  1  0
 14 15  2  0
 15 16  1  0
 16 17  2  0
 17 18  1  0
 18 19  2  0
 19 20  1  0
 20 21  1  0
 17 22  1  0
 22 23  2  0
 22 24  1  0
 24 25  1  0
 25 26  1  0
 26 27  1  0
 27 28  1  0
 28 29  1  0
 28 30  1  0
 30 31  1  0
 12 32  2  0
 32 33  1  0
 33 34  2  0
 34 35  1  0
 35 36  1  0
 35 37  1  0
 37 38  2  0
 37  3  1  0
  9  5  1  0
 34 10  1  0
 19 14  1  0
 31 25  1  0
M  END
>  <activity_comment>  (16) 
active

>  <activity_id>  (16) 
9618772

>  <activity_properties>  (16) 
[]

>  <assay_chembl_id>  (16) 
CHEMBL1963787

>  <assay_description>  (16) 
PUBCHEM_BIOASSAY: Navigating the Kinome. (Class of assay: other) Panel member name: CAMK2B

>  <assay_type>  (16) 
F

>  <bao_endpoint>  (16) 
BAO_0000192

>  <bao_format>  (16) 
BAO_0000019

>  <bao_label>  (16) 
assay format

>  <canonical_smiles>  (16) 
CCC1N(C2CCCC2)c3nc(Nc4ccc(cc4OC)C(=O)NC5CCN(C)CC5)ncc3N(C)C1=O

>  <data_validity_comment>  (16) 
nan

>  <data_validity_description>  (16) 
nan

>  <document_chembl_id>  (16) 
CHEMBL1201862

>  <document_journal>  (16) 
nan

>  <document_year>  (16) 
nan

>  <ligand_efficiency>  (16) 
nan

>  <molecule_pref_name>  (16) 
nan

>  <parent_molecule_chembl_id>  (16) 
CHEMBL1968380

>  <pchembl_value>  (16) 
5.7

>  <potential_duplicate>  (16) 
False

>  <qudt_units>  (16) 
http://www.openphacts.org/units/Nanomolar

>  <record_id>  (16) 
1584520

>  <relation>  (16) 
=

>  <src_id>  (16) 
7

>  <standard_flag>  (16) 
True

>  <standard_relation>  (16) 
=

>  <standard_text_value>  (16) 
nan

>  <standard_type>  (16) 
Ki

>  <standard_units>  (16) 
nM

>  <standard_upper_value>  (16) 
nan

>  <standard_value>  (16) 
1995.26

>  <target_chembl_id>  (16) 
CHEMBL4121

>  <target_organism>  (16) 
Homo sapiens

>  <target_pref_name>  (16) 
CaM kinase II beta

>  <target_tax_id>  (16) 
9606

>  <text_value>  (16) 
nan

>  <toid>  (16) 
nan

>  <type>  (16) 
pKi

>  <units>  (16) 
nan

>  <uo_units>  (16) 
UO_0000065

>  <upper_value>  (16) 
nan

>  <value>  (16) 
5.7

>  <SMILES>  (16) 
CCC1N(C2CCCC2)c3nc(Nc4ccc(cc4OC)C(=O)NC5CCN(C)CC5)ncc3N(C)C1=O

>  <NAME>  (16) 
CHEMBL1968380

>  <FILTER>  (16) 
OK

>  <MW>  (16) 
521.666

>  <LogP>  (16) 
3.5568

>  <HBD>  (16) 
2

>  <HBA>  (16) 
8

>  <TPSA>  (16) 
102.93

>  <Label>  (16) 
CAMK2B

$$$$
CHEMBL1981782
     RDKit          2D

 22 24  0  0  0  0  0  0  0  0999 V2000
   -7.8997   12.1775    0.0000 Cl  0  0  0  0  0  0  0  0  0  0  0  0
   -6.7850   11.1738    0.0000 C   0  0  0  0  0  0  0  0  0  0  0  0
   -5.3584   11.6374    0.0000 C   0  0  0  0  0  0  0  0  0  0  0  0
   -4.2437   10.6337    0.0000 C   0  0  0  0  0  0  0  0  0  0  0  0
   -4.5556    9.1664    0.0000 C   0  0  0  0  0  0  0  0  0  0  0  0
   -3.4408    8.1628    0.0000 C   0  0  0  0  0  0  0  0  0  0  0  0
   -3.7527    6.6955    0.0000 N   0  0  0  0  0  0  0  0  0  0  0  0
   -2.6380    5.6918    0.0000 C   0  0  0  0  0  0  0  0  0  0  0  0
   -1.2114    6.1554    0.0000 O   0  0  0  0  0  0  0  0  0  0  0  0
   -2.9499    4.2246    0.0000 N   0  0  0  0  0  0  0  0  0  0  0  0
   -1.8351    3.2209    0.0000 C   0  0  0  0  0  0  0  0  0  0  0  0
   -0.4086    3.6844    0.0000 C   0  0  0  0  0  0  0  0  0  0  0  0
    0.7062    2.6807    0.0000 C   0  0  0  0  0  0  0  0  0  0  0  0
    0.3943    1.2135    0.0000 C   0  0  0  0  0  0  0  0  0  0  0  0
    1.2760    0.0000    0.0000 N   0  0  0  0  0  0  0  0  0  0  0  0
    0.3943   -1.2135    0.0000 N   0  0  0  0  0  0  0  0  0  0  0  0
   -1.0323   -0.7500    0.0000 C   0  0  0  0  0  0  0  0  0  0  0  0
   -1.0323    0.7500    0.0000 C   0  0  0  0  0  0  0  0  0  0  0  0
   -2.1470    1.7537    0.0000 C   0  0  0  0  0  0  0  0  0  0  0  0
   -5.9821    8.7029    0.0000 C   0  0  0  0  0  0  0  0  0  0  0  0
   -7.0969    9.7066    0.0000 C   0  0  0  0  0  0  0  0  0  0  0  0
   -8.5234    9.2431    0.0000 Cl  0  0  0  0  0  0  0  0  0  0  0  0
  1  2  1  0
  2  3  2  0
  3  4  1  0
  4  5  2  0
  5  6  1  0
  6  7  1  0
  7  8  1  0
  8  9  2  0
  8 10  1  0
 10 11  1  0
 11 12  2  0
 12 13  1  0
 13 14  2  0
 14 15  1  0
 15 16  1  0
 16 17  2  0
 17 18  1  0
 18 19  2  0
  5 20  1  0
 20 21  2  0
 21 22  1  0
 21  2  1  0
 19 11  1  0
 18 14  1  0
M  END
>  <activity_comment>  (17) 
active

>  <activity_id>  (17) 
9618774

>  <activity_properties>  (17) 
[]

>  <assay_chembl_id>  (17) 
CHEMBL1963787

>  <assay_description>  (17) 
PUBCHEM_BIOASSAY: Navigating the Kinome. (Class of assay: other) Panel member name: CAMK2B

>  <assay_type>  (17) 
F

>  <bao_endpoint>  (17) 
BAO_0000192

>  <bao_format>  (17) 
BAO_0000019

>  <bao_label>  (17) 
assay format

>  <canonical_smiles>  (17) 
Clc1ccc(CNC(=O)Nc2ccc3[nH]ncc3c2)cc1Cl

>  <data_validity_comment>  (17) 
nan

>  <data_validity_description>  (17) 
nan

>  <document_chembl_id>  (17) 
CHEMBL1201862

>  <document_journal>  (17) 
nan

>  <document_year>  (17) 
nan

>  <ligand_efficiency>  (17) 
nan

>  <molecule_pref_name>  (17) 
nan

>  <parent_molecule_chembl_id>  (17) 
CHEMBL1981782

>  <pchembl_value>  (17) 
5.1

>  <potential_duplicate>  (17) 
False

>  <qudt_units>  (17) 
http://www.openphacts.org/units/Nanomolar

>  <record_id>  (17) 
1584541

>  <relation>  (17) 
=

>  <src_id>  (17) 
7

>  <standard_flag>  (17) 
True

>  <standard_relation>  (17) 
=

>  <standard_text_value>  (17) 
nan

>  <standard_type>  (17) 
Ki

>  <standard_units>  (17) 
nM

>  <standard_upper_value>  (17) 
nan

>  <standard_value>  (17) 
7943.28

>  <target_chembl_id>  (17) 
CHEMBL4121

>  <target_organism>  (17) 
Homo sapiens

>  <target_pref_name>  (17) 
CaM kinase II beta

>  <target_tax_id>  (17) 
9606

>  <text_value>  (17) 
nan

>  <toid>  (17) 
nan

>  <type>  (17) 
pKi

>  <units>  (17) 
nan

>  <uo_units>  (17) 
UO_0000065

>  <upper_value>  (17) 
nan

>  <value>  (17) 
5.1

>  <SMILES>  (17) 
Clc1ccc(CNC(=O)Nc2ccc3[nH]ncc3c2)cc1Cl

>  <NAME>  (17) 
CHEMBL1981782

>  <FILTER>  (17) 
OK

>  <MW>  (17) 
335.194

>  <LogP>  (17) 
4.1914

>  <HBD>  (17) 
3

>  <HBA>  (17) 
2

>  <TPSA>  (17) 
69.81

>  <Label>  (17) 
CAMK2B

$$$$
CHEMBL1977681
     RDKit          2D

 19 21  0  0  0  0  0  0  0  0999 V2000
    5.0260   -1.2990    0.0000 C   0  0  0  0  0  0  0  0  0  0  0  0
    3.5260   -1.2990    0.0000 N   0  0  0  0  0  0  0  0  0  0  0  0
    2.7760    0.0000    0.0000 C   0  0  0  0  0  0  0  0  0  0  0  0
    3.5260    1.2990    0.0000 O   0  0  0  0  0  0  0  0  0  0  0  0
    1.2760    0.0000    0.0000 C   0  0  0  0  0  0  0  0  0  0  0  0
    0.3943    1.2135    0.0000 C   0  0  0  0  0  0  0  0  0  0  0  0
   -1.0323    0.7500    0.0000 C   0  0  0  0  0  0  0  0  0  0  0  0
   -2.4589    1.2135    0.0000 C   0  0  0  0  0  0  0  0  0  0  0  0
   -3.3405    0.0000    0.0000 N   0  0  0  0  0  0  0  0  0  0  0  0
   -2.4589   -1.2135    0.0000 N   0  0  0  0  0  0  0  0  0  0  0  0
   -1.0323   -0.7500    0.0000 C   0  0  0  0  0  0  0  0  0  0  0  0
    0.3943   -1.2135    0.0000 S   0  0  0  0  0  0  0  0  0  0  0  0
   -2.9224    2.6401    0.0000 C   0  0  0  0  0  0  0  0  0  0  0  0
   -1.9187    3.7548    0.0000 C   0  0  0  0  0  0  0  0  0  0  0  0
   -2.3822    5.1814    0.0000 C   0  0  0  0  0  0  0  0  0  0  0  0
   -3.8494    5.4933    0.0000 C   0  0  0  0  0  0  0  0  0  0  0  0
   -4.8531    4.3786    0.0000 C   0  0  0  0  0  0  0  0  0  0  0  0
   -4.3896    2.9520    0.0000 C   0  0  0  0  0  0  0  0  0  0  0  0
   -5.3933    1.8373    0.0000 F   0  0  0  0  0  0  0  0  0  0  0  0
  1  2  1  0
  2  3  1  0
  3  4  2  0
  3  5  1  0
  5  6  2  0
  6  7  1  0
  7  8  1  0
  8  9  2  0
  9 10  1  0
 10 11  1  0
 11 12  1  0
  8 13  1  0
 13 14  2  0
 14 15  1  0
 15 16  2  0
 16 17  1  0
 17 18  2  0
 18 19  1  0
 12  5  1  0
 11  7  2  0
 18 13  1  0
M  END
>  <activity_comment>  (18) 
active

>  <activity_id>  (18) 
9618775

>  <activity_properties>  (18) 
[]

>  <assay_chembl_id>  (18) 
CHEMBL1963787

>  <assay_description>  (18) 
PUBCHEM_BIOASSAY: Navigating the Kinome. (Class of assay: other) Panel member name: CAMK2B

>  <assay_type>  (18) 
F

>  <bao_endpoint>  (18) 
BAO_0000192

>  <bao_format>  (18) 
BAO_0000019

>  <bao_label>  (18) 
assay format

>  <canonical_smiles>  (18) 
CNC(=O)c1cc2c(n[nH]c2s1)c3ccccc3F

>  <data_validity_comment>  (18) 
nan

>  <data_validity_description>  (18) 
nan

>  <document_chembl_id>  (18) 
CHEMBL1201862

>  <document_journal>  (18) 
nan

>  <document_year>  (18) 
nan

>  <ligand_efficiency>  (18) 
nan

>  <molecule_pref_name>  (18) 
nan

>  <parent_molecule_chembl_id>  (18) 
CHEMBL1977681

>  <pchembl_value>  (18) 
5.1

>  <potential_duplicate>  (18) 
False

>  <qudt_units>  (18) 
http://www.openphacts.org/units/Nanomolar

>  <record_id>  (18) 
1584822

>  <relation>  (18) 
=

>  <src_id>  (18) 
7

>  <standard_flag>  (18) 
True

>  <standard_relation>  (18) 
=

>  <standard_text_value>  (18) 
nan

>  <standard_type>  (18) 
Ki

>  <standard_units>  (18) 
nM

>  <standard_upper_value>  (18) 
nan

>  <standard_value>  (18) 
7943.28

>  <target_chembl_id>  (18) 
CHEMBL4121

>  <target_organism>  (18) 
Homo sapiens

>  <target_pref_name>  (18) 
CaM kinase II beta

>  <target_tax_id>  (18) 
9606

>  <text_value>  (18) 
nan

>  <toid>  (18) 
nan

>  <type>  (18) 
pKi

>  <units>  (18) 
nan

>  <uo_units>  (18) 
UO_0000065

>  <upper_value>  (18) 
nan

>  <value>  (18) 
5.1

>  <SMILES>  (18) 
CNC(=O)c1cc2c(n[nH]c2s1)c3ccccc3F

>  <NAME>  (18) 
CHEMBL1977681

>  <FILTER>  (18) 
OK

>  <MW>  (18) 
275.308

>  <LogP>  (18) 
2.7901

>  <HBD>  (18) 
2

>  <HBA>  (18) 
3

>  <TPSA>  (18) 
57.78

>  <Label>  (18) 
CAMK2B

$$$$
CHEMBL223360
     RDKit          2D

 28 31  0  0  0  0  0  0  0  0999 V2000
    3.7500  -14.2894    0.0000 C   0  0  0  0  0  0  0  0  0  0  0  0
    3.0000  -12.9904    0.0000 C   0  0  0  0  0  0  0  0  0  0  0  0
    1.5000  -12.9904    0.0000 C   0  0  0  0  0  0  0  0  0  0  0  0
    0.7500  -11.6913    0.0000 C   0  0  0  0  0  0  0  0  0  0  0  0
    1.5000  -10.3923    0.0000 C   0  0  0  0  0  0  0  0  0  0  0  0
    0.7500   -9.0933    0.0000 F   0  0  0  0  0  0  0  0  0  0  0  0
    3.0000  -10.3923    0.0000 C   0  0  0  0  0  0  0  0  0  0  0  0
    3.7500   -9.0933    0.0000 N   0  0  0  0  0  0  0  0  0  0  0  0
    3.0000   -7.7942    0.0000 C   0  0  0  0  0  0  0  0  0  0  0  0
    1.5000   -7.7942    0.0000 O   0  0  0  0  0  0  0  0  0  0  0  0
    3.7500   -6.4952    0.0000 N   0  0  0  0  0  0  0  0  0  0  0  0
    3.0000   -5.1962    0.0000 C   0  0  0  0  0  0  0  0  0  0  0  0
    3.7500   -3.8971    0.0000 C   0  0  0  0  0  0  0  0  0  0  0  0
    3.0000   -2.5981    0.0000 C   0  0  0  0  0  0  0  0  0  0  0  0
    1.5000   -2.5981    0.0000 C   0  0  0  0  0  0  0  0  0  0  0  0
    0.7500   -3.8971    0.0000 C   0  0  0  0  0  0  0  0  0  0  0  0
    1.5000   -5.1962    0.0000 C   0  0  0  0  0  0  0  0  0  0  0  0
    0.7500   -1.2990    0.0000 C   0  0  0  0  0  0  0  0  0  0  0  0
    1.5000    0.0000    0.0000 C   0  0  0  0  0  0  0  0  0  0  0  0
    0.7500    1.2990    0.0000 C   0  0  0  0  0  0  0  0  0  0  0  0
   -0.7500    1.2990    0.0000 C   0  0  0  0  0  0  0  0  0  0  0  0
   -1.5000    0.0000    0.0000 C   0  0  0  0  0  0  0  0  0  0  0  0
   -2.9672   -0.3119    0.0000 N   0  0  0  0  0  0  0  0  0  0  0  0
   -3.1240   -1.8037    0.0000 N   0  0  0  0  0  0  0  0  0  0  0  0
   -1.7537   -2.4138    0.0000 C   0  0  0  0  0  0  0  0  0  0  0  0
   -1.4418   -3.8810    0.0000 N   0  0  0  0  0  0  0  0  0  0  0  0
   -0.7500   -1.2990    0.0000 C   0  0  0  0  0  0  0  0  0  0  0  0
    3.7500  -11.6913    0.0000 C   0  0  0  0  0  0  0  0  0  0  0  0
  1  2  1  0
  2  3  2  0
  3  4  1  0
  4  5  2  0
  5  6  1  0
  5  7  1  0
  7  8  1  0
  8  9  1  0
  9 10  2  0
  9 11  1  0
 11 12  1  0
 12 13  2  0
 13 14  1  0
 14 15  2  0
 15 16  1  0
 16 17  2  0
 15 18  1  0
 18 19  2  0
 19 20  1  0
 20 21  2  0
 21 22  1  0
 22 23  1  0
 23 24  1  0
 24 25  2  0
 25 26  1  0
 25 27  1  0
  7 28  2  0
 28  2  1  0
 17 12  1  0
 27 18  1  0
 27 22  2  0
M  END
>  <activity_comment>  (19) 
active

>  <activity_id>  (19) 
9618778

>  <activity_properties>  (19) 
[]

>  <assay_chembl_id>  (19) 
CHEMBL1963787

>  <assay_description>  (19) 
PUBCHEM_BIOASSAY: Navigating the Kinome. (Class of assay: other) Panel member name: CAMK2B

>  <assay_type>  (19) 
F

>  <bao_endpoint>  (19) 
BAO_0000192

>  <bao_format>  (19) 
BAO_0000019

>  <bao_label>  (19) 
assay format

>  <canonical_smiles>  (19) 
Cc1ccc(F)c(NC(=O)Nc2ccc(cc2)c3cccc4[nH]nc(N)c34)c1

>  <data_validity_comment>  (19) 
nan

>  <data_validity_description>  (19) 
nan

>  <document_chembl_id>  (19) 
CHEMBL1201862

>  <document_journal>  (19) 
nan

>  <document_year>  (19) 
nan

>  <ligand_efficiency>  (19) 
nan

>  <molecule_pref_name>  (19) 
LINIFANIB

>  <parent_molecule_chembl_id>  (19) 
CHEMBL223360

>  <pchembl_value>  (19) 
5.4

>  <potential_duplicate>  (19) 
False

>  <qudt_units>  (19) 
http://www.openphacts.org/units/Nanomolar

>  <record_id>  (19) 
1584222

>  <relation>  (19) 
=

>  <src_id>  (19) 
7

>  <standard_flag>  (19) 
True

>  <standard_relation>  (19) 
=

>  <standard_text_value>  (19) 
nan

>  <standard_type>  (19) 
Ki

>  <standard_units>  (19) 
nM

>  <standard_upper_value>  (19) 
nan

>  <standard_value>  (19) 
3981.07

>  <target_chembl_id>  (19) 
CHEMBL4121

>  <target_organism>  (19) 
Homo sapiens

>  <target_pref_name>  (19) 
CaM kinase II beta

>  <target_tax_id>  (19) 
9606

>  <text_value>  (19) 
nan

>  <toid>  (19) 
nan

>  <type>  (19) 
pKi

>  <units>  (19) 
nan

>  <uo_units>  (19) 
UO_0000065

>  <upper_value>  (19) 
nan

>  <value>  (19) 
5.4

>  <SMILES>  (19) 
Cc1ccc(F)c(NC(=O)Nc2ccc(cc2)c3cccc4[nH]nc(N)c34)c1

>  <NAME>  (19) 
CHEMBL223360

>  <FILTER>  (19) 
OK

>  <MW>  (19) 
375.407

>  <LogP>  (19) 
4.90362

>  <HBD>  (19) 
4

>  <HBA>  (19) 
3

>  <TPSA>  (19) 
95.83

>  <Label>  (19) 
CAMK2B

$$$$
CHEMBL1988163
     RDKit          2D

 26 29  0  0  0  0  0  0  0  0999 V2000
    2.2500   -9.0933    0.0000 N   0  0  0  0  0  0  0  0  0  0  0  0
    1.5000   -7.7942    0.0000 S   0  0  0  0  0  0  0  0  0  0  0  0
    0.2010   -8.5442    0.0000 O   0  0  0  0  0  0  0  0  0  0  0  0
    2.7990   -7.0442    0.0000 O   0  0  0  0  0  0  0  0  0  0  0  0
    0.7500   -6.4952    0.0000 C   0  0  0  0  0  0  0  0  0  0  0  0
   -0.7500   -6.4952    0.0000 C   0  0  0  0  0  0  0  0  0  0  0  0
   -1.5000   -5.1962    0.0000 C   0  0  0  0  0  0  0  0  0  0  0  0
   -0.7500   -3.8971    0.0000 C   0  0  0  0  0  0  0  0  0  0  0  0
    0.7500   -3.8971    0.0000 C   0  0  0  0  0  0  0  0  0  0  0  0
    1.5000   -2.5981    0.0000 N   0  0  0  0  0  0  0  0  0  0  0  0
    0.7500   -1.2990    0.0000 C   0  0  0  0  0  0  0  0  0  0  0  0
    1.5000    0.0000    0.0000 N   0  0  0  0  0  0  0  0  0  0  0  0
    0.7500    1.2990    0.0000 C   0  0  0  0  0  0  0  0  0  0  0  0
   -0.7500    1.2990    0.0000 C   0  0  0  0  0  0  0  0  0  0  0  0
   -1.7537    2.4138    0.0000 C   0  0  0  0  0  0  0  0  0  0  0  0
   -3.1240    1.8037    0.0000 C   0  0  0  0  0  0  0  0  0  0  0  0
   -2.9672    0.3119    0.0000 N   0  0  0  0  0  0  0  0  0  0  0  0
   -4.0819   -0.6918    0.0000 C   0  0  0  0  0  0  0  0  0  0  0  0
   -5.5085   -0.2283    0.0000 C   0  0  0  0  0  0  0  0  0  0  0  0
   -6.6232   -1.2320    0.0000 C   0  0  0  0  0  0  0  0  0  0  0  0
   -6.3114   -2.6992    0.0000 C   0  0  0  0  0  0  0  0  0  0  0  0
   -4.8848   -3.1627    0.0000 C   0  0  0  0  0  0  0  0  0  0  0  0
   -3.7701   -2.1590    0.0000 C   0  0  0  0  0  0  0  0  0  0  0  0
   -1.5000    0.0000    0.0000 C   0  0  0  0  0  0  0  0  0  0  0  0
   -0.7500   -1.2990    0.0000 N   0  0  0  0  0  0  0  0  0  0  0  0
    1.5000   -5.1962    0.0000 C   0  0  0  0  0  0  0  0  0  0  0  0
  1  2  1  0
  2  3  2  0
  2  4  2  0
  2  5  1  0
  5  6  2  0
  6  7  1  0
  7  8  2  0
  8  9  1  0
  9 10  1  0
 10 11  1  0
 11 12  2  0
 12 13  1  0
 13 14  2  0
 14 15  1  0
 15 16  2  0
 16 17  1  0
 17 18  1  0
 18 19  2  0
 19 20  1  0
 20 21  2  0
 21 22  1  0
 22 23  2  0
 17 24  1  0
 24 25  2  0
  9 26  2  0
 26  5  1  0
 25 11  1  0
 24 14  1  0
 23 18  1  0
M  END
>  <activity_comment>  (20) 
active

>  <activity_id>  (20) 
9618779

>  <activity_properties>  (20) 
[]

>  <assay_chembl_id>  (20) 
CHEMBL1963787

>  <assay_description>  (20) 
PUBCHEM_BIOASSAY: Navigating the Kinome. (Class of assay: other) Panel member name: CAMK2B

>  <assay_type>  (20) 
F

>  <bao_endpoint>  (20) 
BAO_0000192

>  <bao_format>  (20) 
BAO_0000019

>  <bao_label>  (20) 
assay format

>  <canonical_smiles>  (20) 
NS(=O)(=O)c1cccc(Nc2ncc3ccn(c4ccccc4)c3n2)c1

>  <data_validity_comment>  (20) 
nan

>  <data_validity_description>  (20) 
nan

>  <document_chembl_id>  (20) 
CHEMBL1201862

>  <document_journal>  (20) 
nan

>  <document_year>  (20) 
nan

>  <ligand_efficiency>  (20) 
nan

>  <molecule_pref_name>  (20) 
nan

>  <parent_molecule_chembl_id>  (20) 
CHEMBL1988163

>  <pchembl_value>  (20) 
5.7

>  <potential_duplicate>  (20) 
False

>  <qudt_units>  (20) 
http://www.openphacts.org/units/Nanomolar

>  <record_id>  (20) 
1585132

>  <relation>  (20) 
=

>  <src_id>  (20) 
7

>  <standard_flag>  (20) 
True

>  <standard_relation>  (20) 
=

>  <standard_text_value>  (20) 
nan

>  <standard_type>  (20) 
Ki

>  <standard_units>  (20) 
nM

>  <standard_upper_value>  (20) 
nan

>  <standard_value>  (20) 
1995.26

>  <target_chembl_id>  (20) 
CHEMBL4121

>  <target_organism>  (20) 
Homo sapiens

>  <target_pref_name>  (20) 
CaM kinase II beta

>  <target_tax_id>  (20) 
9606

>  <text_value>  (20) 
nan

>  <toid>  (20) 
nan

>  <type>  (20) 
pKi

>  <units>  (20) 
nan

>  <uo_units>  (20) 
UO_0000065

>  <upper_value>  (20) 
nan

>  <value>  (20) 
5.7

>  <SMILES>  (20) 
NS(=O)(=O)c1cccc(Nc2ncc3ccn(c4ccccc4)c3n2)c1

>  <NAME>  (20) 
CHEMBL1988163

>  <FILTER>  (20) 
OK

>  <MW>  (20) 
365.418

>  <LogP>  (20) 
2.8115

>  <HBD>  (20) 
2

>  <HBA>  (20) 
6

>  <TPSA>  (20) 
102.9

>  <Label>  (20) 
CAMK2B

$$$$
CHEMBL1975128
     RDKit          2D

 23 26  0  0  0  0  0  0  0  0999 V2000
   -2.6401   -3.1891    0.0000 N   0  0  0  0  0  0  0  0  0  0  0  0
   -1.2135   -2.7256    0.0000 C   0  0  0  0  0  0  0  0  0  0  0  0
   -0.0000   -3.6073    0.0000 N   0  0  0  0  0  0  0  0  0  0  0  0
    1.2135   -2.7256    0.0000 N   0  0  0  0  0  0  0  0  0  0  0  0
    0.7500   -1.2990    0.0000 C   0  0  0  0  0  0  0  0  0  0  0  0
    1.5000    0.0000    0.0000 C   0  0  0  0  0  0  0  0  0  0  0  0
    0.7500    1.2990    0.0000 C   0  0  0  0  0  0  0  0  0  0  0  0
   -0.7500    1.2990    0.0000 C   0  0  0  0  0  0  0  0  0  0  0  0
   -1.5000    0.0000    0.0000 C   0  0  0  0  0  0  0  0  0  0  0  0
   -0.7500   -1.2990    0.0000 C   0  0  0  0  0  0  0  0  0  0  0  0
   -1.5000    2.5981    0.0000 C   0  0  0  0  0  0  0  0  0  0  0  0
   -2.9918    2.7549    0.0000 N   0  0  0  0  0  0  0  0  0  0  0  0
   -3.3037    4.2221    0.0000 N   0  0  0  0  0  0  0  0  0  0  0  0
   -2.0046    4.9721    0.0000 N   0  0  0  0  0  0  0  0  0  0  0  0
   -1.8478    6.4639    0.0000 C   0  0  0  0  0  0  0  0  0  0  0  0
   -0.4775    7.0740    0.0000 C   0  0  0  0  0  0  0  0  0  0  0  0
    0.7360    6.1923    0.0000 C   0  0  0  0  0  0  0  0  0  0  0  0
    2.1063    6.8024    0.0000 C   0  0  0  0  0  0  0  0  0  0  0  0
    2.2631    8.2942    0.0000 C   0  0  0  0  0  0  0  0  0  0  0  0
    1.0496    9.1759    0.0000 C   0  0  0  0  0  0  0  0  0  0  0  0
   -0.3207    8.5658    0.0000 C   0  0  0  0  0  0  0  0  0  0  0  0
   -0.8899    3.9684    0.0000 C   0  0  0  0  0  0  0  0  0  0  0  0
    0.5773    4.2803    0.0000 I   0  0  0  0  0  0  0  0  0  0  0  0
  1  2  1  0
  2  3  2  0
  3  4  1  0
  4  5  1  0
  5  6  2  0
  6  7  1  0
  7  8  2  0
  8  9  1  0
  9 10  2  0
  8 11  1  0
 11 12  1  0
 12 13  2  0
 13 14  1  0
 14 15  1  0
 15 16  1  0
 16 17  2  0
 17 18  1  0
 18 19  2  0
 19 20  1  0
 20 21  2  0
 14 22  1  0
 22 23  1  0
 10  2  1  0
 10  5  1  0
 22 11  2  0
 21 16  1  0
M  END
>  <activity_comment>  (21) 
active

>  <activity_id>  (21) 
9618780

>  <activity_properties>  (21) 
[]

>  <assay_chembl_id>  (21) 
CHEMBL1963787

>  <assay_description>  (21) 
PUBCHEM_BIOASSAY: Navigating the Kinome. (Class of assay: other) Panel member name: CAMK2B

>  <assay_type>  (21) 
F

>  <bao_endpoint>  (21) 
BAO_0000192

>  <bao_format>  (21) 
BAO_0000019

>  <bao_label>  (21) 
assay format

>  <canonical_smiles>  (21) 
Nc1n[nH]c2ccc(cc12)c3nnn(Cc4ccccc4)c3I

>  <data_validity_comment>  (21) 
nan

>  <data_validity_description>  (21) 
nan

>  <document_chembl_id>  (21) 
CHEMBL1201862

>  <document_journal>  (21) 
nan

>  <document_year>  (21) 
nan

>  <ligand_efficiency>  (21) 
nan

>  <molecule_pref_name>  (21) 
nan

>  <parent_molecule_chembl_id>  (21) 
CHEMBL1975128

>  <pchembl_value>  (21) 
6.1

>  <potential_duplicate>  (21) 
False

>  <qudt_units>  (21) 
http://www.openphacts.org/units/Nanomolar

>  <record_id>  (21) 
1584370

>  <relation>  (21) 
=

>  <src_id>  (21) 
7

>  <standard_flag>  (21) 
True

>  <standard_relation>  (21) 
=

>  <standard_text_value>  (21) 
nan

>  <standard_type>  (21) 
Ki

>  <standard_units>  (21) 
nM

>  <standard_upper_value>  (21) 
nan

>  <standard_value>  (21) 
794.33

>  <target_chembl_id>  (21) 
CHEMBL4121

>  <target_organism>  (21) 
Homo sapiens

>  <target_pref_name>  (21) 
CaM kinase II beta

>  <target_tax_id>  (21) 
9606

>  <text_value>  (21) 
nan

>  <toid>  (21) 
nan

>  <type>  (21) 
pKi

>  <units>  (21) 
nan

>  <uo_units>  (21) 
UO_0000065

>  <upper_value>  (21) 
nan

>  <value>  (21) 
6.1

>  <SMILES>  (21) 
Nc1n[nH]c2ccc(cc12)c3nnn(Cc4ccccc4)c3I

>  <NAME>  (21) 
CHEMBL1975128

>  <FILTER>  (21) 
OK

>  <MW>  (21) 
416.226

>  <LogP>  (21) 
3.0565

>  <HBD>  (21) 
2

>  <HBA>  (21) 
5

>  <TPSA>  (21) 
85.41

>  <Label>  (21) 
CAMK2B

$$$$
CHEMBL1974870
     RDKit          2D

 28 31  0  0  0  0  0  0  0  0999 V2000
   -2.6401   -3.1891    0.0000 C   0  0  0  0  0  0  0  0  0  0  0  0
   -1.2135   -2.7256    0.0000 C   0  0  0  0  0  0  0  0  0  0  0  0
   -0.0000   -3.6073    0.0000 N   0  0  0  0  0  0  0  0  0  0  0  0
    1.2135   -2.7256    0.0000 N   0  0  0  0  0  0  0  0  0  0  0  0
    0.7500   -1.2990    0.0000 C   0  0  0  0  0  0  0  0  0  0  0  0
    1.5000    0.0000    0.0000 C   0  0  0  0  0  0  0  0  0  0  0  0
    0.7500    1.2990    0.0000 C   0  0  0  0  0  0  0  0  0  0  0  0
   -0.7500    1.2990    0.0000 C   0  0  0  0  0  0  0  0  0  0  0  0
   -1.5000    0.0000    0.0000 C   0  0  0  0  0  0  0  0  0  0  0  0
   -0.7500   -1.2990    0.0000 C   0  0  0  0  0  0  0  0  0  0  0  0
   -1.5000    2.5981    0.0000 C   0  0  0  0  0  0  0  0  0  0  0  0
   -0.7500    3.8971    0.0000 C   0  0  0  0  0  0  0  0  0  0  0  0
   -1.5000    5.1962    0.0000 N   0  0  0  0  0  0  0  0  0  0  0  0
   -3.0000    5.1962    0.0000 C   0  0  0  0  0  0  0  0  0  0  0  0
   -3.7500    3.8971    0.0000 C   0  0  0  0  0  0  0  0  0  0  0  0
   -5.2500    3.8971    0.0000 O   0  0  0  0  0  0  0  0  0  0  0  0
   -6.0000    5.1962    0.0000 C   0  0  0  0  0  0  0  0  0  0  0  0
   -7.5000    5.1962    0.0000 C   0  0  0  0  0  0  0  0  0  0  0  0
   -8.2500    3.8971    0.0000 N   0  0  0  0  0  0  0  0  0  0  0  0
   -8.2500    6.4952    0.0000 C   0  0  0  0  0  0  0  0  0  0  0  0
   -9.7500    6.4952    0.0000 C   0  0  0  0  0  0  0  0  0  0  0  0
  -10.5000    7.7942    0.0000 C   0  0  0  0  0  0  0  0  0  0  0  0
  -12.0000    7.7942    0.0000 C   0  0  0  0  0  0  0  0  0  0  0  0
  -12.7500    6.4952    0.0000 C   0  0  0  0  0  0  0  0  0  0  0  0
  -12.0000    5.1962    0.0000 C   0  0  0  0  0  0  0  0  0  0  0  0
  -12.7500    3.8971    0.0000 Cl  0  0  0  0  0  0  0  0  0  0  0  0
  -10.5000    5.1962    0.0000 C   0  0  0  0  0  0  0  0  0  0  0  0
   -3.0000    2.5981    0.0000 C   0  0  0  0  0  0  0  0  0  0  0  0
  1  2  1  0
  2  3  2  0
  3  4  1  0
  4  5  1  0
  5  6  2  0
  6  7  1  0
  7  8  2  0
  8  9  1  0
  9 10  2  0
  8 11  1  0
 11 12  2  0
 12 13  1  0
 13 14  2  0
 14 15  1  0
 15 16  1  0
 16 17  1  0
 17 18  1  0
 18 19  1  0
 18 20  1  0
 20 21  1  0
 21 22  2  0
 22 23  1  0
 23 24  2  0
 24 25  1  0
 25 26  1  0
 25 27  2  0
 15 28  2  0
 10  2  1  0
 10  5  1  0
 28 11  1  0
 27 21  1  0
M  END
>  <activity_comment>  (22) 
active

>  <activity_id>  (22) 
9618789

>  <activity_properties>  (22) 
[]

>  <assay_chembl_id>  (22) 
CHEMBL1963787

>  <assay_description>  (22) 
PUBCHEM_BIOASSAY: Navigating the Kinome. (Class of assay: other) Panel member name: CAMK2B

>  <assay_type>  (22) 
F

>  <bao_endpoint>  (22) 
BAO_0000192

>  <bao_format>  (22) 
BAO_0000019

>  <bao_label>  (22) 
assay format

>  <canonical_smiles>  (22) 
Cc1n[nH]c2ccc(cc12)c3cncc(OCC(N)Cc4cccc(Cl)c4)c3

>  <data_validity_comment>  (22) 
nan

>  <data_validity_description>  (22) 
nan

>  <document_chembl_id>  (22) 
CHEMBL1201862

>  <document_journal>  (22) 
nan

>  <document_year>  (22) 
nan

>  <ligand_efficiency>  (22) 
nan

>  <molecule_pref_name>  (22) 
nan

>  <parent_molecule_chembl_id>  (22) 
CHEMBL1974870

>  <pchembl_value>  (22) 
7.0

>  <potential_duplicate>  (22) 
False

>  <qudt_units>  (22) 
http://www.openphacts.org/units/Nanomolar

>  <record_id>  (22) 
1584363

>  <relation>  (22) 
=

>  <src_id>  (22) 
7

>  <standard_flag>  (22) 
True

>  <standard_relation>  (22) 
=

>  <standard_text_value>  (22) 
nan

>  <standard_type>  (22) 
Ki

>  <standard_units>  (22) 
nM

>  <standard_upper_value>  (22) 
nan

>  <standard_value>  (22) 
100.0

>  <target_chembl_id>  (22) 
CHEMBL4121

>  <target_organism>  (22) 
Homo sapiens

>  <target_pref_name>  (22) 
CaM kinase II beta

>  <target_tax_id>  (22) 
9606

>  <text_value>  (22) 
nan

>  <toid>  (22) 
nan

>  <type>  (22) 
pKi

>  <units>  (22) 
nan

>  <uo_units>  (22) 
UO_0000065

>  <upper_value>  (22) 
nan

>  <value>  (22) 
7.0

>  <SMILES>  (22) 
Cc1n[nH]c2ccc(cc12)c3cncc(OCC(N)Cc4cccc(Cl)c4)c3

>  <NAME>  (22) 
CHEMBL1974870

>  <FILTER>  (22) 
OK

>  <MW>  (22) 
392.89

>  <LogP>  (22) 
4.53552

>  <HBD>  (22) 
2

>  <HBA>  (22) 
4

>  <TPSA>  (22) 
76.82

>  <Label>  (22) 
CAMK2B

$$$$
CHEMBL1992306
     RDKit          2D

 31 33  0  0  0  0  0  0  0  0999 V2000
    5.2500   -1.2990    0.0000 C   0  0  0  0  0  0  0  0  0  0  0  0
    3.7500   -1.2990    0.0000 N   0  0  0  0  0  0  0  0  0  0  0  0
    3.0000    0.0000    0.0000 C   0  0  0  0  0  0  0  0  0  0  0  0
    3.7500    1.2990    0.0000 O   0  0  0  0  0  0  0  0  0  0  0  0
    1.5000    0.0000    0.0000 C   0  0  0  0  0  0  0  0  0  0  0  0
    0.7500   -1.2990    0.0000 C   0  0  0  0  0  0  0  0  0  0  0  0
   -0.7500   -1.2990    0.0000 C   0  0  0  0  0  0  0  0  0  0  0  0
   -1.5000   -2.5981    0.0000 O   0  0  0  0  0  0  0  0  0  0  0  0
   -3.0000   -2.5981    0.0000 C   0  0  0  0  0  0  0  0  0  0  0  0
   -3.7500   -1.2990    0.0000 C   0  0  0  0  0  0  0  0  0  0  0  0
   -5.2500   -1.2990    0.0000 C   0  0  0  0  0  0  0  0  0  0  0  0
   -6.0000   -2.5981    0.0000 C   0  0  0  0  0  0  0  0  0  0  0  0
   -7.5000   -2.5981    0.0000 N   0  0  0  0  0  0  0  0  0  0  0  0
   -8.2500   -1.2990    0.0000 C   0  0  0  0  0  0  0  0  0  0  0  0
   -7.5000    0.0000    0.0000 O   0  0  0  0  0  0  0  0  0  0  0  0
   -9.7500   -1.2990    0.0000 N   0  0  0  0  0  0  0  0  0  0  0  0
  -10.5000    0.0000    0.0000 C   0  0  0  0  0  0  0  0  0  0  0  0
   -9.7500    1.2990    0.0000 C   0  0  0  0  0  0  0  0  0  0  0  0
  -10.5000    2.5981    0.0000 C   0  0  0  0  0  0  0  0  0  0  0  0
  -12.0000    2.5981    0.0000 C   0  0  0  0  0  0  0  0  0  0  0  0
  -12.7500    1.2990    0.0000 C   0  0  0  0  0  0  0  0  0  0  0  0
  -12.0000    0.0000    0.0000 C   0  0  0  0  0  0  0  0  0  0  0  0
  -14.2500    1.2990    0.0000 C   0  0  0  0  0  0  0  0  0  0  0  0
  -15.7500    1.2990    0.0000 F   0  0  0  0  0  0  0  0  0  0  0  0
  -14.2500    2.7990    0.0000 F   0  0  0  0  0  0  0  0  0  0  0  0
  -14.2500   -0.2010    0.0000 F   0  0  0  0  0  0  0  0  0  0  0  0
   -5.2500   -3.8971    0.0000 C   0  0  0  0  0  0  0  0  0  0  0  0
   -3.7500   -3.8971    0.0000 C   0  0  0  0  0  0  0  0  0  0  0  0
   -1.5000    0.0000    0.0000 C   0  0  0  0  0  0  0  0  0  0  0  0
   -0.7500    1.2990    0.0000 C   0  0  0  0  0  0  0  0  0  0  0  0
    0.7500    1.2990    0.0000 N   0  0  0  0  0  0  0  0  0  0  0  0
  1  2  1  0
  2  3  1  0
  3  4  2  0
  3  5  1  0
  5  6  2  0
  6  7  1  0
  7  8  1  0
  8  9  1  0
  9 10  2  0
 10 11  1  0
 11 12  2  0
 12 13  1  0
 13 14  1  0
 14 15  2  0
 14 16  1  0
 16 17  1  0
 17 18  2  0
 18 19  1  0
 19 20  2  0
 20 21  1  0
 21 22  2  0
 21 23  1  0
 23 24  1  0
 23 25  1  0
 23 26  1  0
 12 27  1  0
 27 28  2  0
  7 29  2  0
 29 30  1  0
 30 31  2  0
 31  5  1  0
 28  9  1  0
 22 17  1  0
M  END
>  <activity_comment>  (23) 
active

>  <activity_id>  (23) 
9618799

>  <activity_properties>  (23) 
[]

>  <assay_chembl_id>  (23) 
CHEMBL1963787

>  <assay_description>  (23) 
PUBCHEM_BIOASSAY: Navigating the Kinome. (Class of assay: other) Panel member name: CAMK2B

>  <assay_type>  (23) 
F

>  <bao_endpoint>  (23) 
BAO_0000192

>  <bao_format>  (23) 
BAO_0000019

>  <bao_label>  (23) 
assay format

>  <canonical_smiles>  (23) 
CNC(=O)c1cc(Oc2ccc(NC(=O)Nc3cccc(c3)C(F)(F)F)cc2)ccn1

>  <data_validity_comment>  (23) 
nan

>  <data_validity_description>  (23) 
nan

>  <document_chembl_id>  (23) 
CHEMBL1201862

>  <document_journal>  (23) 
nan

>  <document_year>  (23) 
nan

>  <ligand_efficiency>  (23) 
nan

>  <molecule_pref_name>  (23) 
nan

>  <parent_molecule_chembl_id>  (23) 
CHEMBL1992306

>  <pchembl_value>  (23) 
5.2

>  <potential_duplicate>  (23) 
False

>  <qudt_units>  (23) 
http://www.openphacts.org/units/Nanomolar

>  <record_id>  (23) 
1584623

>  <relation>  (23) 
=

>  <src_id>  (23) 
7

>  <standard_flag>  (23) 
True

>  <standard_relation>  (23) 
=

>  <standard_text_value>  (23) 
nan

>  <standard_type>  (23) 
Ki

>  <standard_units>  (23) 
nM

>  <standard_upper_value>  (23) 
nan

>  <standard_value>  (23) 
6309.57

>  <target_chembl_id>  (23) 
CHEMBL4121

>  <target_organism>  (23) 
Homo sapiens

>  <target_pref_name>  (23) 
CaM kinase II beta

>  <target_tax_id>  (23) 
9606

>  <text_value>  (23) 
nan

>  <toid>  (23) 
nan

>  <type>  (23) 
pKi

>  <units>  (23) 
nan

>  <uo_units>  (23) 
UO_0000065

>  <upper_value>  (23) 
nan

>  <value>  (23) 
5.2

>  <SMILES>  (23) 
CNC(=O)c1cc(Oc2ccc(NC(=O)Nc3cccc(c3)C(F)(F)F)cc2)ccn1

>  <NAME>  (23) 
CHEMBL1992306

>  <FILTER>  (23) 
OK

>  <MW>  (23) 
430.386

>  <LogP>  (23) 
4.8963

>  <HBD>  (23) 
3

>  <HBA>  (23) 
4

>  <TPSA>  (23) 
92.35

>  <Label>  (23) 
CAMK2B

$$$$
CHEMBL2002165
     RDKit          2D

 36 40  0  0  0  0  0  0  0  0999 V2000
   -0.4281   -9.1056    0.0000 C   0  0  0  0  0  0  0  0  0  0  0  0
   -1.3098   -7.8921    0.0000 C   0  0  0  0  0  0  0  0  0  0  0  0
   -2.8015   -8.0489    0.0000 O   0  0  0  0  0  0  0  0  0  0  0  0
   -0.6996   -6.5218    0.0000 C   0  0  0  0  0  0  0  0  0  0  0  0
   -1.5813   -5.3083    0.0000 N   0  0  0  0  0  0  0  0  0  0  0  0
   -1.1178   -3.8817    0.0000 C   0  0  0  0  0  0  0  0  0  0  0  0
   -2.3313   -3.0000    0.0000 C   0  0  0  0  0  0  0  0  0  0  0  0
   -3.5449   -3.8817    0.0000 C   0  0  0  0  0  0  0  0  0  0  0  0
   -3.0813   -5.3083    0.0000 N   0  0  0  0  0  0  0  0  0  0  0  0
   -2.3313   -1.5000    0.0000 C   0  0  0  0  0  0  0  0  0  0  0  0
   -3.6304   -0.7500    0.0000 C   0  0  0  0  0  0  0  0  0  0  0  0
   -3.6304    0.7500    0.0000 N   0  0  0  0  0  0  0  0  0  0  0  0
   -2.3313    1.5000    0.0000 C   0  0  0  0  0  0  0  0  0  0  0  0
   -2.3313    3.0000    0.0000 N   0  0  0  0  0  0  0  0  0  0  0  0
   -1.0323    0.7500    0.0000 C   0  0  0  0  0  0  0  0  0  0  0  0
    0.3943    1.2135    0.0000 C   0  0  0  0  0  0  0  0  0  0  0  0
    1.2760    0.0000    0.0000 C   0  0  0  0  0  0  0  0  0  0  0  0
    0.3943   -1.2135    0.0000 S   0  0  0  0  0  0  0  0  0  0  0  0
   -1.0323   -0.7500    0.0000 C   0  0  0  0  0  0  0  0  0  0  0  0
    0.8578    2.6401    0.0000 C   0  0  0  0  0  0  0  0  0  0  0  0
    2.3250    2.9520    0.0000 C   0  0  0  0  0  0  0  0  0  0  0  0
    2.7886    4.3786    0.0000 C   0  0  0  0  0  0  0  0  0  0  0  0
    1.7849    5.4933    0.0000 C   0  0  0  0  0  0  0  0  0  0  0  0
    2.2484    6.9199    0.0000 N   0  0  0  0  0  0  0  0  0  0  0  0
    3.7156    7.2317    0.0000 C   0  0  0  0  0  0  0  0  0  0  0  0
    4.7193    6.1170    0.0000 O   0  0  0  0  0  0  0  0  0  0  0  0
    4.1791    8.6583    0.0000 N   0  0  0  0  0  0  0  0  0  0  0  0
    5.6464    8.9702    0.0000 C   0  0  0  0  0  0  0  0  0  0  0  0
    6.6501    7.8555    0.0000 C   0  0  0  0  0  0  0  0  0  0  0  0
    8.1173    8.1673    0.0000 C   0  0  0  0  0  0  0  0  0  0  0  0
    8.5808    9.5939    0.0000 C   0  0  0  0  0  0  0  0  0  0  0  0
    7.5771   10.7086    0.0000 C   0  0  0  0  0  0  0  0  0  0  0  0
    8.0406   12.1352    0.0000 F   0  0  0  0  0  0  0  0  0  0  0  0
    6.1099   10.3968    0.0000 C   0  0  0  0  0  0  0  0  0  0  0  0
    0.3177    5.1814    0.0000 C   0  0  0  0  0  0  0  0  0  0  0  0
   -0.1459    3.7548    0.0000 C   0  0  0  0  0  0  0  0  0  0  0  0
  1  2  1  0
  2  3  1  0
  2  4  1  0
  4  5  1  0
  5  6  1  0
  6  7  2  0
  7  8  1  0
  8  9  2  0
  7 10  1  0
 10 11  2  0
 11 12  1  0
 12 13  2  0
 13 14  1  0
 13 15  1  0
 15 16  1  0
 16 17  2  0
 17 18  1  0
 18 19  1  0
 16 20  1  0
 20 21  2  0
 21 22  1  0
 22 23  2  0
 23 24  1  0
 24 25  1  0
 25 26  2  0
 25 27  1  0
 27 28  1  0
 28 29  2  0
 29 30  1  0
 30 31  2  0
 31 32  1  0
 32 33  1  0
 32 34  2  0
 23 35  1  0
 35 36  2  0
  9  5  1  0
 19 10  1  0
 19 15  2  0
 36 20  1  0
 34 28  1  0
M  END
>  <activity_comment>  (24) 
active

>  <activity_id>  (24) 
9618800

>  <activity_properties>  (24) 
[]

>  <assay_chembl_id>  (24) 
CHEMBL1963787

>  <assay_description>  (24) 
PUBCHEM_BIOASSAY: Navigating the Kinome. (Class of assay: other) Panel member name: CAMK2B

>  <assay_type>  (24) 
F

>  <bao_endpoint>  (24) 
BAO_0000192

>  <bao_format>  (24) 
BAO_0000019

>  <bao_label>  (24) 
assay format

>  <canonical_smiles>  (24) 
CC(O)Cn1cc(cn1)c2cnc(N)c3c(csc23)c4ccc(NC(=O)Nc5cccc(F)c5)cc4

>  <data_validity_comment>  (24) 
nan

>  <data_validity_description>  (24) 
nan

>  <document_chembl_id>  (24) 
CHEMBL1201862

>  <document_journal>  (24) 
nan

>  <document_year>  (24) 
nan

>  <ligand_efficiency>  (24) 
nan

>  <molecule_pref_name>  (24) 
nan

>  <parent_molecule_chembl_id>  (24) 
CHEMBL2002165

>  <pchembl_value>  (24) 
5.1

>  <potential_duplicate>  (24) 
False

>  <qudt_units>  (24) 
http://www.openphacts.org/units/Nanomolar

>  <record_id>  (24) 
1584204

>  <relation>  (24) 
=

>  <src_id>  (24) 
7

>  <standard_flag>  (24) 
True

>  <standard_relation>  (24) 
=

>  <standard_text_value>  (24) 
nan

>  <standard_type>  (24) 
Ki

>  <standard_units>  (24) 
nM

>  <standard_upper_value>  (24) 
nan

>  <standard_value>  (24) 
7943.28

>  <target_chembl_id>  (24) 
CHEMBL4121

>  <target_organism>  (24) 
Homo sapiens

>  <target_pref_name>  (24) 
CaM kinase II beta

>  <target_tax_id>  (24) 
9606

>  <text_value>  (24) 
nan

>  <toid>  (24) 
nan

>  <type>  (24) 
pKi

>  <units>  (24) 
nan

>  <uo_units>  (24) 
UO_0000065

>  <upper_value>  (24) 
nan

>  <value>  (24) 
5.1

>  <SMILES>  (24) 
CC(O)Cn1cc(cn1)c2cnc(N)c3c(csc23)c4ccc(NC(=O)Nc5cccc(F)c5)cc4

>  <NAME>  (24) 
CHEMBL2002165

>  <FILTER>  (24) 
OK

>  <MW>  (24) 
502.575

>  <LogP>  (24) 
5.5729

>  <HBD>  (24) 
4

>  <HBA>  (24) 
7

>  <TPSA>  (24) 
118.09

>  <Label>  (24) 
CAMK2B

$$$$
CHEMBL1998585
     RDKit          2D

 31 34  0  0  0  0  0  0  0  0999 V2000
    3.0000    0.0000    0.0000 N   0  0  0  0  0  0  0  0  0  0  0  0
    1.5000    0.0000    0.0000 C   0  0  0  0  0  0  0  0  0  0  0  0
    0.7500   -1.2990    0.0000 N   0  0  0  0  0  0  0  0  0  0  0  0
   -0.7500   -1.2990    0.0000 C   0  0  0  0  0  0  0  0  0  0  0  0
   -1.5000    0.0000    0.0000 N   0  0  0  0  0  0  0  0  0  0  0  0
   -0.7500    1.2990    0.0000 C   0  0  0  0  0  0  0  0  0  0  0  0
   -1.2135    2.7256    0.0000 S   0  0  0  0  0  0  0  0  0  0  0  0
   -0.0000    3.6073    0.0000 C   0  0  0  0  0  0  0  0  0  0  0  0
    1.2135    2.7256    0.0000 C   0  0  0  0  0  0  0  0  0  0  0  0
    2.6401    3.1891    0.0000 C   0  0  0  0  0  0  0  0  0  0  0  0
    3.7548    2.1855    0.0000 C   0  0  0  0  0  0  0  0  0  0  0  0
    5.1814    2.6490    0.0000 C   0  0  0  0  0  0  0  0  0  0  0  0
    5.4933    4.1162    0.0000 C   0  0  0  0  0  0  0  0  0  0  0  0
    6.9199    4.5797    0.0000 N   0  0  0  0  0  0  0  0  0  0  0  0
    8.0346    3.5760    0.0000 C   0  0  0  0  0  0  0  0  0  0  0  0
    7.7227    2.1088    0.0000 O   0  0  0  0  0  0  0  0  0  0  0  0
    9.4612    4.0396    0.0000 N   0  0  0  0  0  0  0  0  0  0  0  0
   10.5759    3.0359    0.0000 C   0  0  0  0  0  0  0  0  0  0  0  0
   10.2640    1.5686    0.0000 C   0  0  0  0  0  0  0  0  0  0  0  0
   11.3787    0.5649    0.0000 C   0  0  0  0  0  0  0  0  0  0  0  0
   12.8053    1.0285    0.0000 C   0  0  0  0  0  0  0  0  0  0  0  0
   13.1172    2.4957    0.0000 C   0  0  0  0  0  0  0  0  0  0  0  0
   12.0025    3.4994    0.0000 C   0  0  0  0  0  0  0  0  0  0  0  0
   12.3143    4.9666    0.0000 F   0  0  0  0  0  0  0  0  0  0  0  0
   11.0669   -0.9023    0.0000 C   0  0  0  0  0  0  0  0  0  0  0  0
   10.7550   -2.3695    0.0000 F   0  0  0  0  0  0  0  0  0  0  0  0
    9.5996   -0.5904    0.0000 F   0  0  0  0  0  0  0  0  0  0  0  0
   12.5341   -1.2141    0.0000 F   0  0  0  0  0  0  0  0  0  0  0  0
    4.3786    5.1199    0.0000 C   0  0  0  0  0  0  0  0  0  0  0  0
    2.9520    4.6564    0.0000 C   0  0  0  0  0  0  0  0  0  0  0  0
    0.7500    1.2990    0.0000 C   0  0  0  0  0  0  0  0  0  0  0  0
  1  2  1  0
  2  3  2  0
  3  4  1  0
  4  5  2  0
  5  6  1  0
  6  7  1  0
  7  8  1  0
  8  9  2  0
  9 10  1  0
 10 11  2  0
 11 12  1  0
 12 13  2  0
 13 14  1  0
 14 15  1  0
 15 16  2  0
 15 17  1  0
 17 18  1  0
 18 19  2  0
 19 20  1  0
 20 21  2  0
 21 22  1  0
 22 23  2  0
 23 24  1  0
 20 25  1  0
 25 26  1  0
 25 27  1  0
 25 28  1  0
 13 29  1  0
 29 30  2  0
  9 31  1  0
 31  2  1  0
 31  6  2  0
 30 10  1  0
 23 18  1  0
M  END
>  <activity_comment>  (25) 
active

>  <activity_id>  (25) 
9618804

>  <activity_properties>  (25) 
[]

>  <assay_chembl_id>  (25) 
CHEMBL1963787

>  <assay_description>  (25) 
PUBCHEM_BIOASSAY: Navigating the Kinome. (Class of assay: other) Panel member name: CAMK2B

>  <assay_type>  (25) 
F

>  <bao_endpoint>  (25) 
BAO_0000192

>  <bao_format>  (25) 
BAO_0000019

>  <bao_label>  (25) 
assay format

>  <canonical_smiles>  (25) 
Nc1ncnc2scc(c3ccc(NC(=O)Nc4cc(ccc4F)C(F)(F)F)cc3)c12

>  <data_validity_comment>  (25) 
nan

>  <data_validity_description>  (25) 
nan

>  <document_chembl_id>  (25) 
CHEMBL1201862

>  <document_journal>  (25) 
nan

>  <document_year>  (25) 
nan

>  <ligand_efficiency>  (25) 
nan

>  <molecule_pref_name>  (25) 
nan

>  <parent_molecule_chembl_id>  (25) 
CHEMBL1998585

>  <pchembl_value>  (25) 
5.5

>  <potential_duplicate>  (25) 
False

>  <qudt_units>  (25) 
http://www.openphacts.org/units/Nanomolar

>  <record_id>  (25) 
1584159

>  <relation>  (25) 
=

>  <src_id>  (25) 
7

>  <standard_flag>  (25) 
True

>  <standard_relation>  (25) 
=

>  <standard_text_value>  (25) 
nan

>  <standard_type>  (25) 
Ki

>  <standard_units>  (25) 
nM

>  <standard_upper_value>  (25) 
nan

>  <standard_value>  (25) 
3162.28

>  <target_chembl_id>  (25) 
CHEMBL4121

>  <target_organism>  (25) 
Homo sapiens

>  <target_pref_name>  (25) 
CaM kinase II beta

>  <target_tax_id>  (25) 
9606

>  <text_value>  (25) 
nan

>  <toid>  (25) 
nan

>  <type>  (25) 
pKi

>  <units>  (25) 
nan

>  <uo_units>  (25) 
UO_0000065

>  <upper_value>  (25) 
nan

>  <value>  (25) 
5.5

>  <SMILES>  (25) 
Nc1ncnc2scc(c3ccc(NC(=O)Nc4cc(ccc4F)C(F)(F)F)cc3)c12

>  <NAME>  (25) 
CHEMBL1998585

>  <FILTER>  (25) 
OK

>  <MW>  (25) 
447.417

>  <LogP>  (25) 
5.7424

>  <HBD>  (25) 
3

>  <HBA>  (25) 
5

>  <TPSA>  (25) 
92.93

>  <Label>  (25) 
CAMK2B

$$$$
CHEMBL519697
     RDKit          2D

 31 34  0  0  0  0  0  0  0  0999 V2000
    0.7500   -3.8971    0.0000 C   0  0  0  0  0  0  0  0  0  0  0  0
    1.5000   -2.5981    0.0000 N   0  0  0  0  0  0  0  0  0  0  0  0
    3.0000   -2.5981    0.0000 C   0  0  0  0  0  0  0  0  0  0  0  0
    3.7500   -1.2990    0.0000 O   0  0  0  0  0  0  0  0  0  0  0  0
    3.7500   -3.8971    0.0000 C   0  0  0  0  0  0  0  0  0  0  0  0
    3.0000   -5.1962    0.0000 C   0  0  0  0  0  0  0  0  0  0  0  0
    3.7500   -6.4952    0.0000 C   0  0  0  0  0  0  0  0  0  0  0  0
    5.2500   -6.4952    0.0000 C   0  0  0  0  0  0  0  0  0  0  0  0
    6.0000   -5.1962    0.0000 C   0  0  0  0  0  0  0  0  0  0  0  0
    5.2500   -3.8971    0.0000 C   0  0  0  0  0  0  0  0  0  0  0  0
    0.7500   -1.2990    0.0000 C   0  0  0  0  0  0  0  0  0  0  0  0
    1.5000    0.0000    0.0000 C   0  0  0  0  0  0  0  0  0  0  0  0
    0.7500    1.2990    0.0000 C   0  0  0  0  0  0  0  0  0  0  0  0
   -0.7500    1.2990    0.0000 C   0  0  0  0  0  0  0  0  0  0  0  0
   -1.5000    0.0000    0.0000 C   0  0  0  0  0  0  0  0  0  0  0  0
   -0.7500   -1.2990    0.0000 C   0  0  0  0  0  0  0  0  0  0  0  0
   -2.9672    0.3119    0.0000 N   0  0  0  0  0  0  0  0  0  0  0  0
   -3.1240    1.8037    0.0000 C   0  0  0  0  0  0  0  0  0  0  0  0
   -4.4231    2.5537    0.0000 N   0  0  0  0  0  0  0  0  0  0  0  0
   -4.4231    4.0537    0.0000 C   0  0  0  0  0  0  0  0  0  0  0  0
   -3.1240    4.8037    0.0000 O   0  0  0  0  0  0  0  0  0  0  0  0
   -5.7221    4.8037    0.0000 C   0  0  0  0  0  0  0  0  0  0  0  0
   -5.7221    6.3037    0.0000 C   0  0  0  0  0  0  0  0  0  0  0  0
   -7.0211    7.0537    0.0000 C   0  0  0  0  0  0  0  0  0  0  0  0
   -8.3202    6.3037    0.0000 C   0  0  0  0  0  0  0  0  0  0  0  0
   -8.3202    4.8037    0.0000 C   0  0  0  0  0  0  0  0  0  0  0  0
   -7.0211    4.0537    0.0000 C   0  0  0  0  0  0  0  0  0  0  0  0
   -9.6192    7.0537    0.0000 C   0  0  0  0  0  0  0  0  0  0  0  0
  -10.9182    7.8037    0.0000 N   0  0  0  0  0  0  0  0  0  0  0  0
   -1.7537    2.4138    0.0000 N   0  0  0  0  0  0  0  0  0  0  0  0
   -1.4418    3.8810    0.0000 C   0  0  0  0  0  0  0  0  0  0  0  0
  1  2  1  0
  2  3  1  0
  3  4  2  0
  3  5  1  0
  5  6  1  0
  6  7  1  0
  7  8  1  0
  8  9  1  0
  9 10  1  0
  2 11  1  0
 11 12  2  0
 12 13  1  0
 13 14  2  0
 14 15  1  0
 15 16  2  0
 15 17  1  0
 17 18  2  0
 18 19  1  0
 19 20  1  0
 20 21  2  0
 20 22  1  0
 22 23  2  0
 23 24  1  0
 24 25  2  0
 25 26  1  0
 26 27  2  0
 25 28  1  0
 28 29  3  0
 18 30  1  0
 30 31  1  0
 10  5  1  0
 16 11  1  0
 30 14  1  0
 27 22  1  0
M  END
>  <activity_comment>  (26) 
active

>  <activity_id>  (26) 
9618806

>  <activity_properties>  (26) 
[]

>  <assay_chembl_id>  (26) 
CHEMBL1963787

>  <assay_description>  (26) 
PUBCHEM_BIOASSAY: Navigating the Kinome. (Class of assay: other) Panel member name: CAMK2B

>  <assay_type>  (26) 
F

>  <bao_endpoint>  (26) 
BAO_0000192

>  <bao_format>  (26) 
BAO_0000019

>  <bao_label>  (26) 
assay format

>  <canonical_smiles>  (26) 
CN(C(=O)C1CCCCC1)c2ccc3c(c2)nc(NC(=O)c4ccc(cc4)C#N)n3C

>  <data_validity_comment>  (26) 
nan

>  <data_validity_description>  (26) 
nan

>  <document_chembl_id>  (26) 
CHEMBL1201862

>  <document_journal>  (26) 
nan

>  <document_year>  (26) 
nan

>  <ligand_efficiency>  (26) 
nan

>  <molecule_pref_name>  (26) 
nan

>  <parent_molecule_chembl_id>  (26) 
CHEMBL519697

>  <pchembl_value>  (26) 
5.1

>  <potential_duplicate>  (26) 
False

>  <qudt_units>  (26) 
http://www.openphacts.org/units/Nanomolar

>  <record_id>  (26) 
1584959

>  <relation>  (26) 
=

>  <src_id>  (26) 
7

>  <standard_flag>  (26) 
True

>  <standard_relation>  (26) 
=

>  <standard_text_value>  (26) 
nan

>  <standard_type>  (26) 
Ki

>  <standard_units>  (26) 
nM

>  <standard_upper_value>  (26) 
nan

>  <standard_value>  (26) 
7943.28

>  <target_chembl_id>  (26) 
CHEMBL4121

>  <target_organism>  (26) 
Homo sapiens

>  <target_pref_name>  (26) 
CaM kinase II beta

>  <target_tax_id>  (26) 
9606

>  <text_value>  (26) 
nan

>  <toid>  (26) 
nan

>  <type>  (26) 
pKi

>  <units>  (26) 
nan

>  <uo_units>  (26) 
UO_0000065

>  <upper_value>  (26) 
nan

>  <value>  (26) 
5.1

>  <SMILES>  (26) 
CN(C(=O)C1CCCCC1)c2ccc3c(c2)nc(NC(=O)c4ccc(cc4)C#N)n3C

>  <NAME>  (26) 
CHEMBL519697

>  <FILTER>  (26) 
OK

>  <MW>  (26) 
415.497

>  <LogP>  (26) 
4.24038

>  <HBD>  (26) 
1

>  <HBA>  (26) 
5

>  <TPSA>  (26) 
91.02

>  <Label>  (26) 
CAMK2B

$$$$
CHEMBL1981947
     RDKit          2D

 34 37  0  0  0  0  0  0  0  0999 V2000
    5.2500   -1.2990    0.0000 C   0  0  0  0  0  0  0  0  0  0  0  0
    3.7500   -1.2990    0.0000 C   0  0  0  0  0  0  0  0  0  0  0  0
    3.0000   -2.5981    0.0000 C   0  0  0  0  0  0  0  0  0  0  0  0
    3.0000    0.0000    0.0000 O   0  0  0  0  0  0  0  0  0  0  0  0
    1.5000    0.0000    0.0000 C   0  0  0  0  0  0  0  0  0  0  0  0
    0.7500   -1.2990    0.0000 C   0  0  0  0  0  0  0  0  0  0  0  0
   -0.7500   -1.2990    0.0000 C   0  0  0  0  0  0  0  0  0  0  0  0
   -1.5000    0.0000    0.0000 C   0  0  0  0  0  0  0  0  0  0  0  0
   -0.7500    1.2990    0.0000 C   0  0  0  0  0  0  0  0  0  0  0  0
    0.7500    1.2990    0.0000 C   0  0  0  0  0  0  0  0  0  0  0  0
    1.5000    2.5981    0.0000 C   0  0  0  0  0  0  0  0  0  0  0  0
    2.2500    3.8971    0.0000 F   0  0  0  0  0  0  0  0  0  0  0  0
    2.7990    1.8481    0.0000 F   0  0  0  0  0  0  0  0  0  0  0  0
    0.2010    3.3481    0.0000 F   0  0  0  0  0  0  0  0  0  0  0  0
   -3.0000    0.0000    0.0000 C   0  0  0  0  0  0  0  0  0  0  0  0
   -3.8817   -1.2135    0.0000 N   0  0  0  0  0  0  0  0  0  0  0  0
   -5.3083   -0.7500    0.0000 O   0  0  0  0  0  0  0  0  0  0  0  0
   -5.3083    0.7500    0.0000 C   0  0  0  0  0  0  0  0  0  0  0  0
   -3.8817    1.2135    0.0000 N   0  0  0  0  0  0  0  0  0  0  0  0
   -6.5218    1.6317    0.0000 C   0  0  0  0  0  0  0  0  0  0  0  0
   -6.3650    3.1235    0.0000 C   0  0  0  0  0  0  0  0  0  0  0  0
   -7.5785    4.0051    0.0000 C   0  0  0  0  0  0  0  0  0  0  0  0
   -8.9488    3.3950    0.0000 C   0  0  0  0  0  0  0  0  0  0  0  0
  -10.1624    4.2767    0.0000 N   0  0  0  0  0  0  0  0  0  0  0  0
  -10.0056    5.7685    0.0000 C   0  0  0  0  0  0  0  0  0  0  0  0
  -11.1203    6.7722    0.0000 C   0  0  0  0  0  0  0  0  0  0  0  0
  -10.5102    8.1425    0.0000 C   0  0  0  0  0  0  0  0  0  0  0  0
   -9.0184    7.9857    0.0000 C   0  0  0  0  0  0  0  0  0  0  0  0
   -8.7065    6.5185    0.0000 C   0  0  0  0  0  0  0  0  0  0  0  0
   -8.0147    9.1004    0.0000 C   0  0  0  0  0  0  0  0  0  0  0  0
   -8.4782   10.5270    0.0000 O   0  0  0  0  0  0  0  0  0  0  0  0
   -6.5475    8.7886    0.0000 O   0  0  0  0  0  0  0  0  0  0  0  0
   -9.1056    1.9033    0.0000 C   0  0  0  0  0  0  0  0  0  0  0  0
   -7.8921    1.0216    0.0000 C   0  0  0  0  0  0  0  0  0  0  0  0
  1  2  1  0
  2  3  1  0
  2  4  1  0
  4  5  1  0
  5  6  2  0
  6  7  1  0
  7  8  2  0
  8  9  1  0
  9 10  2  0
 10 11  1  0
 11 12  1  0
 11 13  1  0
 11 14  1  0
  8 15  1  0
 15 16  2  0
 16 17  1  0
 17 18  1  0
 18 19  2  0
 18 20  1  0
 20 21  2  0
 21 22  1  0
 22 23  2  0
 23 24  1  0
 24 25  1  0
 25 26  1  0
 26 27  1  0
 27 28  1  0
 28 29  1  0
 28 30  1  0
 30 31  2  0
 30 32  1  0
 23 33  1  0
 33 34  2  0
 10  5  1  0
 19 15  1  0
 34 20  1  0
 29 25  1  0
M  END
>  <activity_comment>  (27) 
active

>  <activity_id>  (27) 
9618808

>  <activity_properties>  (27) 
[]

>  <assay_chembl_id>  (27) 
CHEMBL1963787

>  <assay_description>  (27) 
PUBCHEM_BIOASSAY: Navigating the Kinome. (Class of assay: other) Panel member name: CAMK2B

>  <assay_type>  (27) 
F

>  <bao_endpoint>  (27) 
BAO_0000192

>  <bao_format>  (27) 
BAO_0000019

>  <bao_label>  (27) 
assay format

>  <canonical_smiles>  (27) 
CC(C)Oc1ccc(cc1C(F)(F)F)c2noc(n2)c3ccc(NC4CCC(C4)C(=O)O)cc3

>  <data_validity_comment>  (27) 
nan

>  <data_validity_description>  (27) 
nan

>  <document_chembl_id>  (27) 
CHEMBL1201862

>  <document_journal>  (27) 
nan

>  <document_year>  (27) 
nan

>  <ligand_efficiency>  (27) 
nan

>  <molecule_pref_name>  (27) 
nan

>  <parent_molecule_chembl_id>  (27) 
CHEMBL1981947

>  <pchembl_value>  (27) 
5.3

>  <potential_duplicate>  (27) 
False

>  <qudt_units>  (27) 
http://www.openphacts.org/units/Nanomolar

>  <record_id>  (27) 
1584828

>  <relation>  (27) 
=

>  <src_id>  (27) 
7

>  <standard_flag>  (27) 
True

>  <standard_relation>  (27) 
=

>  <standard_text_value>  (27) 
nan

>  <standard_type>  (27) 
Ki

>  <standard_units>  (27) 
nM

>  <standard_upper_value>  (27) 
nan

>  <standard_value>  (27) 
5011.87

>  <target_chembl_id>  (27) 
CHEMBL4121

>  <target_organism>  (27) 
Homo sapiens

>  <target_pref_name>  (27) 
CaM kinase II beta

>  <target_tax_id>  (27) 
9606

>  <text_value>  (27) 
nan

>  <toid>  (27) 
nan

>  <type>  (27) 
pKi

>  <units>  (27) 
nan

>  <uo_units>  (27) 
UO_0000065

>  <upper_value>  (27) 
nan

>  <value>  (27) 
5.3

>  <SMILES>  (27) 
CC(C)Oc1ccc(cc1C(F)(F)F)c2noc(n2)c3ccc(NC4CCC(C4)C(=O)O)cc3

>  <NAME>  (27) 
CHEMBL1981947

>  <FILTER>  (27) 
OK

>  <MW>  (27) 
475.467

>  <LogP>  (27) 
5.8748

>  <HBD>  (27) 
2

>  <HBA>  (27) 
6

>  <TPSA>  (27) 
97.48

>  <Label>  (27) 
CAMK2B

$$$$
CHEMBL491473
     RDKit          2D

 33 37  0  0  0  0  0  0  0  0999 V2000
   -5.2500   -3.8971    0.0000 C   0  0  0  0  0  0  0  0  0  0  0  0
   -3.7500   -3.8971    0.0000 O   0  0  0  0  0  0  0  0  0  0  0  0
   -3.0000   -2.5981    0.0000 C   0  0  0  0  0  0  0  0  0  0  0  0
   -1.5000   -2.5981    0.0000 C   0  0  0  0  0  0  0  0  0  0  0  0
   -0.7500   -1.2990    0.0000 C   0  0  0  0  0  0  0  0  0  0  0  0
    0.7500   -1.2990    0.0000 C   0  0  0  0  0  0  0  0  0  0  0  0
    1.5000   -2.5981    0.0000 O   0  0  0  0  0  0  0  0  0  0  0  0
    3.0000   -2.5981    0.0000 C   0  0  0  0  0  0  0  0  0  0  0  0
    3.7500   -1.2990    0.0000 C   0  0  0  0  0  0  0  0  0  0  0  0
    5.2500   -1.2990    0.0000 C   0  0  0  0  0  0  0  0  0  0  0  0
    6.0000   -2.5981    0.0000 C   0  0  0  0  0  0  0  0  0  0  0  0
    7.4672   -2.9099    0.0000 N   0  0  0  0  0  0  0  0  0  0  0  0
    7.6240   -4.4017    0.0000 C   0  0  0  0  0  0  0  0  0  0  0  0
    8.9231   -5.1517    0.0000 C   0  0  0  0  0  0  0  0  0  0  0  0
    6.2537   -5.0118    0.0000 C   0  0  0  0  0  0  0  0  0  0  0  0
    5.2500   -3.8971    0.0000 C   0  0  0  0  0  0  0  0  0  0  0  0
    3.7500   -3.8971    0.0000 C   0  0  0  0  0  0  0  0  0  0  0  0
    3.0000   -5.1962    0.0000 F   0  0  0  0  0  0  0  0  0  0  0  0
    1.5000    0.0000    0.0000 N   0  0  0  0  0  0  0  0  0  0  0  0
    0.7500    1.2990    0.0000 C   0  0  0  0  0  0  0  0  0  0  0  0
   -0.7500    1.2990    0.0000 N   0  0  0  0  0  0  0  0  0  0  0  0
   -1.5000    0.0000    0.0000 C   0  0  0  0  0  0  0  0  0  0  0  0
   -3.0000    0.0000    0.0000 C   0  0  0  0  0  0  0  0  0  0  0  0
   -3.7500   -1.2990    0.0000 C   0  0  0  0  0  0  0  0  0  0  0  0
   -5.2500   -1.2990    0.0000 O   0  0  0  0  0  0  0  0  0  0  0  0
   -6.0000    0.0000    0.0000 C   0  0  0  0  0  0  0  0  0  0  0  0
   -7.5000    0.0000    0.0000 C   0  0  0  0  0  0  0  0  0  0  0  0
   -8.2500    1.2990    0.0000 C   0  0  0  0  0  0  0  0  0  0  0  0
   -9.7500    1.2990    0.0000 N   0  0  0  0  0  0  0  0  0  0  0  0
  -10.6317    0.0855    0.0000 C   0  0  0  0  0  0  0  0  0  0  0  0
  -12.0583    0.5490    0.0000 C   0  0  0  0  0  0  0  0  0  0  0  0
  -12.0583    2.0490    0.0000 C   0  0  0  0  0  0  0  0  0  0  0  0
  -10.6317    2.5126    0.0000 C   0  0  0  0  0  0  0  0  0  0  0  0
  1  2  1  0
  2  3  1  0
  3  4  2  0
  4  5  1  0
  5  6  2  0
  6  7  1  0
  7  8  1  0
  8  9  2  0
  9 10  1  0
 10 11  2  0
 11 12  1  0
 12 13  1  0
 13 14  1  0
 13 15  2  0
 15 16  1  0
 16 17  2  0
 17 18  1  0
  6 19  1  0
 19 20  2  0
 20 21  1  0
 21 22  2  0
 22 23  1  0
 23 24  2  0
 24 25  1  0
 25 26  1  0
 26 27  1  0
 27 28  1  0
 28 29  1  0
 29 30  1  0
 30 31  1  0
 31 32  1  0
 32 33  1  0
 24  3  1  0
 22  5  1  0
 17  8  1  0
 16 11  1  0
 33 29  1  0
M  END
>  <activity_comment>  (28) 
active

>  <activity_id>  (28) 
9618812

>  <activity_properties>  (28) 
[]

>  <assay_chembl_id>  (28) 
CHEMBL1963787

>  <assay_description>  (28) 
PUBCHEM_BIOASSAY: Navigating the Kinome. (Class of assay: other) Panel member name: CAMK2B

>  <assay_type>  (28) 
F

>  <bao_endpoint>  (28) 
BAO_0000192

>  <bao_format>  (28) 
BAO_0000019

>  <bao_label>  (28) 
assay format

>  <canonical_smiles>  (28) 
COc1cc2c(Oc3ccc4[nH]c(C)cc4c3F)ncnc2cc1OCCCN5CCCC5

>  <data_validity_comment>  (28) 
nan

>  <data_validity_description>  (28) 
nan

>  <document_chembl_id>  (28) 
CHEMBL1201862

>  <document_journal>  (28) 
nan

>  <document_year>  (28) 
nan

>  <ligand_efficiency>  (28) 
nan

>  <molecule_pref_name>  (28) 
CEDIRANIB

>  <parent_molecule_chembl_id>  (28) 
CHEMBL491473

>  <pchembl_value>  (28) 
5.3

>  <potential_duplicate>  (28) 
False

>  <qudt_units>  (28) 
http://www.openphacts.org/units/Nanomolar

>  <record_id>  (28) 
1585222

>  <relation>  (28) 
=

>  <src_id>  (28) 
7

>  <standard_flag>  (28) 
True

>  <standard_relation>  (28) 
=

>  <standard_text_value>  (28) 
nan

>  <standard_type>  (28) 
Ki

>  <standard_units>  (28) 
nM

>  <standard_upper_value>  (28) 
nan

>  <standard_value>  (28) 
5011.87

>  <target_chembl_id>  (28) 
CHEMBL4121

>  <target_organism>  (28) 
Homo sapiens

>  <target_pref_name>  (28) 
CaM kinase II beta

>  <target_tax_id>  (28) 
9606

>  <text_value>  (28) 
nan

>  <toid>  (28) 
nan

>  <type>  (28) 
pKi

>  <units>  (28) 
nan

>  <uo_units>  (28) 
UO_0000065

>  <upper_value>  (28) 
nan

>  <value>  (28) 
5.3

>  <SMILES>  (28) 
COc1cc2c(Oc3ccc4[nH]c(C)cc4c3F)ncnc2cc1OCCCN5CCCC5

>  <NAME>  (28) 
CHEMBL491473

>  <FILTER>  (28) 
OK

>  <MW>  (28) 
450.514

>  <LogP>  (28) 
5.22422

>  <HBD>  (28) 
1

>  <HBA>  (28) 
6

>  <TPSA>  (28) 
72.5

>  <Label>  (28) 
CAMK2B

$$$$
CHEMBL1966425
     RDKit          2D

 33 37  0  0  0  0  0  0  0  0999 V2000
    4.8068    9.4767    0.0000 C   0  0  0  0  0  0  0  0  0  0  0  0
    3.3802    9.0132    0.0000 N   0  0  0  0  0  0  0  0  0  0  0  0
    2.2655   10.0169    0.0000 C   0  0  0  0  0  0  0  0  0  0  0  0
    3.0684    7.5459    0.0000 C   0  0  0  0  0  0  0  0  0  0  0  0
    1.6418    7.0824    0.0000 C   0  0  0  0  0  0  0  0  0  0  0  0
    1.3299    5.6152    0.0000 C   0  0  0  0  0  0  0  0  0  0  0  0
   -0.0967    5.1517    0.0000 O   0  0  0  0  0  0  0  0  0  0  0  0
   -0.4086    3.6844    0.0000 C   0  0  0  0  0  0  0  0  0  0  0  0
    0.7062    2.6807    0.0000 C   0  0  0  0  0  0  0  0  0  0  0  0
    0.3943    1.2135    0.0000 C   0  0  0  0  0  0  0  0  0  0  0  0
    1.2760    0.0000    0.0000 C   0  0  0  0  0  0  0  0  0  0  0  0
    2.7760    0.0000    0.0000 O   0  0  0  0  0  0  0  0  0  0  0  0
    0.3943   -1.2135    0.0000 N   0  0  0  0  0  0  0  0  0  0  0  0
   -1.0323   -0.7500    0.0000 C   0  0  0  0  0  0  0  0  0  0  0  0
   -1.0323    0.7500    0.0000 C   0  0  0  0  0  0  0  0  0  0  0  0
   -2.1470    1.7537    0.0000 C   0  0  0  0  0  0  0  0  0  0  0  0
   -1.8351    3.2209    0.0000 C   0  0  0  0  0  0  0  0  0  0  0  0
   -3.5736    1.2902    0.0000 C   0  0  0  0  0  0  0  0  0  0  0  0
   -4.6883    2.2939    0.0000 C   0  0  0  0  0  0  0  0  0  0  0  0
   -6.1149    1.8303    0.0000 C   0  0  0  0  0  0  0  0  0  0  0  0
   -6.4268    0.3631    0.0000 C   0  0  0  0  0  0  0  0  0  0  0  0
   -7.8533   -0.1004    0.0000 N   0  0  0  0  0  0  0  0  0  0  0  0
   -8.9681    0.9033    0.0000 C   0  0  0  0  0  0  0  0  0  0  0  0
   -8.8113    2.3951    0.0000 O   0  0  0  0  0  0  0  0  0  0  0  0
  -10.1816    3.0052    0.0000 C   0  0  0  0  0  0  0  0  0  0  0  0
  -10.6451    4.4318    0.0000 C   0  0  0  0  0  0  0  0  0  0  0  0
  -12.1123    4.7436    0.0000 C   0  0  0  0  0  0  0  0  0  0  0  0
  -13.1160    3.6289    0.0000 C   0  0  0  0  0  0  0  0  0  0  0  0
  -12.6525    2.2023    0.0000 C   0  0  0  0  0  0  0  0  0  0  0  0
  -11.1853    1.8905    0.0000 C   0  0  0  0  0  0  0  0  0  0  0  0
  -10.4353    0.5914    0.0000 N   0  0  0  0  0  0  0  0  0  0  0  0
   -5.3120   -0.6406    0.0000 C   0  0  0  0  0  0  0  0  0  0  0  0
   -3.8855   -0.1771    0.0000 C   0  0  0  0  0  0  0  0  0  0  0  0
  1  2  1  0
  2  3  1  0
  2  4  1  0
  4  5  1  0
  5  6  1  0
  6  7  1  0
  7  8  1  0
  8  9  2  0
  9 10  1  0
 10 11  1  0
 11 12  2  0
 11 13  1  0
 13 14  1  0
 14 15  1  0
 15 16  1  0
 16 17  2  0
 16 18  1  0
 18 19  2  0
 19 20  1  0
 20 21  2  0
 21 22  1  0
 22 23  1  0
 23 24  1  0
 24 25  1  0
 25 26  2  0
 26 27  1  0
 27 28  2  0
 28 29  1  0
 29 30  2  0
 30 31  1  0
 21 32  1  0
 32 33  2  0
 17  8  1  0
 15 10  2  0
 33 18  1  0
 31 23  2  0
 30 25  1  0
M  END
>  <activity_comment>  (29) 
active

>  <activity_id>  (29) 
9618813

>  <activity_properties>  (29) 
[]

>  <assay_chembl_id>  (29) 
CHEMBL1963787

>  <assay_description>  (29) 
PUBCHEM_BIOASSAY: Navigating the Kinome. (Class of assay: other) Panel member name: CAMK2B

>  <assay_type>  (29) 
F

>  <bao_endpoint>  (29) 
BAO_0000192

>  <bao_format>  (29) 
BAO_0000019

>  <bao_label>  (29) 
assay format

>  <canonical_smiles>  (29) 
CN(C)CCCOc1cc2C(=O)NCc2c(c1)c3ccc(Nc4oc5ccccc5n4)cc3

>  <data_validity_comment>  (29) 
nan

>  <data_validity_description>  (29) 
nan

>  <document_chembl_id>  (29) 
CHEMBL1201862

>  <document_journal>  (29) 
nan

>  <document_year>  (29) 
nan

>  <ligand_efficiency>  (29) 
nan

>  <molecule_pref_name>  (29) 
nan

>  <parent_molecule_chembl_id>  (29) 
CHEMBL1966425

>  <pchembl_value>  (29) 
5.9

>  <potential_duplicate>  (29) 
False

>  <qudt_units>  (29) 
http://www.openphacts.org/units/Nanomolar

>  <record_id>  (29) 
1584530

>  <relation>  (29) 
=

>  <src_id>  (29) 
7

>  <standard_flag>  (29) 
True

>  <standard_relation>  (29) 
=

>  <standard_text_value>  (29) 
nan

>  <standard_type>  (29) 
Ki

>  <standard_units>  (29) 
nM

>  <standard_upper_value>  (29) 
nan

>  <standard_value>  (29) 
1258.93

>  <target_chembl_id>  (29) 
CHEMBL4121

>  <target_organism>  (29) 
Homo sapiens

>  <target_pref_name>  (29) 
CaM kinase II beta

>  <target_tax_id>  (29) 
9606

>  <text_value>  (29) 
nan

>  <toid>  (29) 
nan

>  <type>  (29) 
pKi

>  <units>  (29) 
nan

>  <uo_units>  (29) 
UO_0000065

>  <upper_value>  (29) 
nan

>  <value>  (29) 
5.9

>  <SMILES>  (29) 
CN(C)CCCOc1cc2C(=O)NCc2c(c1)c3ccc(Nc4oc5ccccc5n4)cc3

>  <NAME>  (29) 
CHEMBL1966425

>  <FILTER>  (29) 
OK

>  <MW>  (29) 
442.519

>  <LogP>  (29) 
4.8123

>  <HBD>  (29) 
2

>  <HBA>  (29) 
6

>  <TPSA>  (29) 
79.63

>  <Label>  (29) 
CAMK2B

$$$$
CHEMBL1998159
     RDKit          2D

 31 34  0  0  0  0  0  0  0  0999 V2000
   -2.6401   -3.1891    0.0000 C   0  0  0  0  0  0  0  0  0  0  0  0
   -1.2135   -2.7256    0.0000 C   0  0  0  0  0  0  0  0  0  0  0  0
   -0.0000   -3.6073    0.0000 N   0  0  0  0  0  0  0  0  0  0  0  0
    1.2135   -2.7256    0.0000 N   0  0  0  0  0  0  0  0  0  0  0  0
    0.7500   -1.2990    0.0000 C   0  0  0  0  0  0  0  0  0  0  0  0
    1.5000    0.0000    0.0000 C   0  0  0  0  0  0  0  0  0  0  0  0
    0.7500    1.2990    0.0000 N   0  0  0  0  0  0  0  0  0  0  0  0
   -0.7500    1.2990    0.0000 C   0  0  0  0  0  0  0  0  0  0  0  0
   -1.5000    0.0000    0.0000 C   0  0  0  0  0  0  0  0  0  0  0  0
   -0.7500   -1.2990    0.0000 C   0  0  0  0  0  0  0  0  0  0  0  0
   -1.5000    2.5981    0.0000 C   0  0  0  0  0  0  0  0  0  0  0  0
   -0.7500    3.8971    0.0000 C   0  0  0  0  0  0  0  0  0  0  0  0
   -1.5000    5.1962    0.0000 N   0  0  0  0  0  0  0  0  0  0  0  0
   -3.0000    5.1962    0.0000 C   0  0  0  0  0  0  0  0  0  0  0  0
   -3.7500    3.8971    0.0000 C   0  0  0  0  0  0  0  0  0  0  0  0
   -5.2500    3.8971    0.0000 O   0  0  0  0  0  0  0  0  0  0  0  0
   -6.0000    5.1962    0.0000 C   0  0  0  0  0  0  0  0  0  0  0  0
   -7.5000    5.1962    0.0000 C   0  0  0  0  0  0  0  0  0  0  0  0
   -8.2500    3.8971    0.0000 N   0  0  0  0  0  0  0  0  0  0  0  0
   -8.2500    6.4952    0.0000 C   0  0  0  0  0  0  0  0  0  0  0  0
   -9.7500    6.4952    0.0000 C   0  0  0  0  0  0  0  0  0  0  0  0
  -10.5000    7.7942    0.0000 C   0  0  0  0  0  0  0  0  0  0  0  0
  -12.0000    7.7942    0.0000 C   0  0  0  0  0  0  0  0  0  0  0  0
  -12.7500    6.4952    0.0000 C   0  0  0  0  0  0  0  0  0  0  0  0
  -12.0000    5.1962    0.0000 C   0  0  0  0  0  0  0  0  0  0  0  0
  -10.5000    5.1962    0.0000 C   0  0  0  0  0  0  0  0  0  0  0  0
  -12.7500    3.8971    0.0000 C   0  0  0  0  0  0  0  0  0  0  0  0
  -13.5000    2.5981    0.0000 F   0  0  0  0  0  0  0  0  0  0  0  0
  -14.0490    4.6471    0.0000 F   0  0  0  0  0  0  0  0  0  0  0  0
  -11.4510    3.1471    0.0000 F   0  0  0  0  0  0  0  0  0  0  0  0
   -3.0000    2.5981    0.0000 C   0  0  0  0  0  0  0  0  0  0  0  0
  1  2  1  0
  2  3  2  0
  3  4  1  0
  4  5  1  0
  5  6  2  0
  6  7  1  0
  7  8  2  0
  8  9  1  0
  9 10  2  0
  8 11  1  0
 11 12  2  0
 12 13  1  0
 13 14  2  0
 14 15  1  0
 15 16  1  0
 16 17  1  0
 17 18  1  0
 18 19  1  0
 18 20  1  0
 20 21  1  0
 21 22  2  0
 22 23  1  0
 23 24  2  0
 24 25  1  0
 25 26  2  0
 25 27  1  0
 27 28  1  0
 27 29  1  0
 27 30  1  0
 15 31  2  0
 10  2  1  0
 10  5  1  0
 31 11  1  0
 26 21  1  0
M  END
>  <activity_comment>  (30) 
active

>  <activity_id>  (30) 
9618820

>  <activity_properties>  (30) 
[]

>  <assay_chembl_id>  (30) 
CHEMBL1963787

>  <assay_description>  (30) 
PUBCHEM_BIOASSAY: Navigating the Kinome. (Class of assay: other) Panel member name: CAMK2B

>  <assay_type>  (30) 
F

>  <bao_endpoint>  (30) 
BAO_0000192

>  <bao_format>  (30) 
BAO_0000019

>  <bao_label>  (30) 
assay format

>  <canonical_smiles>  (30) 
Cc1n[nH]c2cnc(cc12)c3cncc(OCC(N)Cc4cccc(c4)C(F)(F)F)c3

>  <data_validity_comment>  (30) 
nan

>  <data_validity_description>  (30) 
nan

>  <document_chembl_id>  (30) 
CHEMBL1201862

>  <document_journal>  (30) 
nan

>  <document_year>  (30) 
nan

>  <ligand_efficiency>  (30) 
nan

>  <molecule_pref_name>  (30) 
nan

>  <parent_molecule_chembl_id>  (30) 
CHEMBL1998159

>  <pchembl_value>  (30) 
7.0

>  <potential_duplicate>  (30) 
False

>  <qudt_units>  (30) 
http://www.openphacts.org/units/Nanomolar

>  <record_id>  (30) 
1585335

>  <relation>  (30) 
=

>  <src_id>  (30) 
7

>  <standard_flag>  (30) 
True

>  <standard_relation>  (30) 
=

>  <standard_text_value>  (30) 
nan

>  <standard_type>  (30) 
Ki

>  <standard_units>  (30) 
nM

>  <standard_upper_value>  (30) 
nan

>  <standard_value>  (30) 
100.0

>  <target_chembl_id>  (30) 
CHEMBL4121

>  <target_organism>  (30) 
Homo sapiens

>  <target_pref_name>  (30) 
CaM kinase II beta

>  <target_tax_id>  (30) 
9606

>  <text_value>  (30) 
nan

>  <toid>  (30) 
nan

>  <type>  (30) 
pKi

>  <units>  (30) 
nan

>  <uo_units>  (30) 
UO_0000065

>  <upper_value>  (30) 
nan

>  <value>  (30) 
7.0

>  <SMILES>  (30) 
Cc1n[nH]c2cnc(cc12)c3cncc(OCC(N)Cc4cccc(c4)C(F)(F)F)c3

>  <NAME>  (30) 
CHEMBL1998159

>  <FILTER>  (30) 
OK

>  <MW>  (30) 
427.43

>  <LogP>  (30) 
4.29592

>  <HBD>  (30) 
2

>  <HBA>  (30) 
5

>  <TPSA>  (30) 
89.71

>  <Label>  (30) 
CAMK2B

$$$$
CHEMBL1987679
     RDKit          2D

 30 34  0  0  0  0  0  0  0  0999 V2000
   -0.7500   -9.0933    0.0000 N   0  0  0  0  0  0  0  0  0  0  0  0
   -1.5000   -7.7942    0.0000 C   0  0  0  0  0  0  0  0  0  0  0  0
   -0.7500   -6.4952    0.0000 C   0  0  0  0  0  0  0  0  0  0  0  0
    0.7500   -6.4952    0.0000 O   0  0  0  0  0  0  0  0  0  0  0  0
    1.5000   -5.1962    0.0000 C   0  0  0  0  0  0  0  0  0  0  0  0
    3.0000   -5.1962    0.0000 C   0  0  0  0  0  0  0  0  0  0  0  0
    3.7500   -3.8971    0.0000 N   0  0  0  0  0  0  0  0  0  0  0  0
    3.0000   -2.5981    0.0000 C   0  0  0  0  0  0  0  0  0  0  0  0
    1.5000   -2.5981    0.0000 C   0  0  0  0  0  0  0  0  0  0  0  0
    0.7500   -3.8971    0.0000 C   0  0  0  0  0  0  0  0  0  0  0  0
    0.7500   -1.2990    0.0000 C   0  0  0  0  0  0  0  0  0  0  0  0
    1.5000    0.0000    0.0000 C   0  0  0  0  0  0  0  0  0  0  0  0
    0.7500    1.2990    0.0000 C   0  0  0  0  0  0  0  0  0  0  0  0
   -0.7500    1.2990    0.0000 C   0  0  0  0  0  0  0  0  0  0  0  0
   -1.7537    2.4138    0.0000 N   0  0  0  0  0  0  0  0  0  0  0  0
   -3.1240    1.8037    0.0000 C   0  0  0  0  0  0  0  0  0  0  0  0
   -4.4231    2.5537    0.0000 O   0  0  0  0  0  0  0  0  0  0  0  0
   -2.9672    0.3119    0.0000 O   0  0  0  0  0  0  0  0  0  0  0  0
   -1.5000    0.0000    0.0000 C   0  0  0  0  0  0  0  0  0  0  0  0
   -0.7500   -1.2990    0.0000 C   0  0  0  0  0  0  0  0  0  0  0  0
   -3.0000   -7.7942    0.0000 C   0  0  0  0  0  0  0  0  0  0  0  0
   -3.7500   -9.0933    0.0000 C   0  0  0  0  0  0  0  0  0  0  0  0
   -3.1399  -10.4636    0.0000 C   0  0  0  0  0  0  0  0  0  0  0  0
   -4.2546  -11.4673    0.0000 N   0  0  0  0  0  0  0  0  0  0  0  0
   -5.5537  -10.7173    0.0000 C   0  0  0  0  0  0  0  0  0  0  0  0
   -6.9802  -11.1808    0.0000 C   0  0  0  0  0  0  0  0  0  0  0  0
   -8.0950  -10.1771    0.0000 C   0  0  0  0  0  0  0  0  0  0  0  0
   -7.7831   -8.7099    0.0000 C   0  0  0  0  0  0  0  0  0  0  0  0
   -6.3565   -8.2464    0.0000 C   0  0  0  0  0  0  0  0  0  0  0  0
   -5.2418   -9.2501    0.0000 C   0  0  0  0  0  0  0  0  0  0  0  0
  1  2  1  0
  2  3  1  0
  3  4  1  0
  4  5  1  0
  5  6  2  0
  6  7  1  0
  7  8  2  0
  8  9  1  0
  9 10  2  0
  9 11  1  0
 11 12  2  0
 12 13  1  0
 13 14  2  0
 14 15  1  0
 15 16  1  0
 16 17  2  0
 16 18  1  0
 18 19  1  0
 19 20  2  0
  2 21  1  0
 21 22  1  0
 22 23  2  0
 23 24  1  0
 24 25  1  0
 25 26  2  0
 26 27  1  0
 27 28  2  0
 28 29  1  0
 29 30  2  0
 10  5  1  0
 20 11  1  0
 19 14  1  0
 30 22  1  0
 30 25  1  0
M  END
>  <activity_comment>  (31) 
active

>  <activity_id>  (31) 
9622380

>  <activity_properties>  (31) 
[]

>  <assay_chembl_id>  (31) 
CHEMBL1963787

>  <assay_description>  (31) 
PUBCHEM_BIOASSAY: Navigating the Kinome. (Class of assay: other) Panel member name: CAMK2B

>  <assay_type>  (31) 
F

>  <bao_endpoint>  (31) 
BAO_0000192

>  <bao_format>  (31) 
BAO_0000019

>  <bao_label>  (31) 
assay format

>  <canonical_smiles>  (31) 
NC(COc1cncc(c1)c2ccc3NC(=O)Oc3c2)Cc4c[nH]c5ccccc45

>  <data_validity_comment>  (31) 
nan

>  <data_validity_description>  (31) 
nan

>  <document_chembl_id>  (31) 
CHEMBL1201862

>  <document_journal>  (31) 
nan

>  <document_year>  (31) 
nan

>  <ligand_efficiency>  (31) 
nan

>  <molecule_pref_name>  (31) 
nan

>  <parent_molecule_chembl_id>  (31) 
CHEMBL1987679

>  <pchembl_value>  (31) 
5.3

>  <potential_duplicate>  (31) 
False

>  <qudt_units>  (31) 
http://www.openphacts.org/units/Nanomolar

>  <record_id>  (31) 
1584360

>  <relation>  (31) 
=

>  <src_id>  (31) 
7

>  <standard_flag>  (31) 
True

>  <standard_relation>  (31) 
=

>  <standard_text_value>  (31) 
nan

>  <standard_type>  (31) 
Ki

>  <standard_units>  (31) 
nM

>  <standard_upper_value>  (31) 
nan

>  <standard_value>  (31) 
5011.87

>  <target_chembl_id>  (31) 
CHEMBL4121

>  <target_organism>  (31) 
Homo sapiens

>  <target_pref_name>  (31) 
CaM kinase II beta

>  <target_tax_id>  (31) 
9606

>  <text_value>  (31) 
nan

>  <toid>  (31) 
nan

>  <type>  (31) 
pKi

>  <units>  (31) 
nan

>  <uo_units>  (31) 
UO_0000065

>  <upper_value>  (31) 
nan

>  <value>  (31) 
5.3

>  <SMILES>  (31) 
NC(COc1cncc(c1)c2ccc3NC(=O)Oc3c2)Cc4c[nH]c5ccccc45

>  <NAME>  (31) 
CHEMBL1987679

>  <FILTER>  (31) 
OK

>  <MW>  (31) 
400.438

>  <LogP>  (31) 
3.6132

>  <HBD>  (31) 
3

>  <HBA>  (31) 
5

>  <TPSA>  (31) 
109.93

>  <Label>  (31) 
CAMK2B

$$$$
CHEMBL1974803
     RDKit          2D

 22 24  0  0  0  0  0  0  0  0999 V2000
    1.5000   -5.1962    0.0000 O   0  0  0  0  0  0  0  0  0  0  0  0
    0.7500   -3.8971    0.0000 C   0  0  0  0  0  0  0  0  0  0  0  0
    1.5000   -2.5981    0.0000 C   0  0  0  0  0  0  0  0  0  0  0  0
    3.0000   -2.5981    0.0000 C   0  0  0  0  0  0  0  0  0  0  0  0
    3.7500   -1.2990    0.0000 C   0  0  0  0  0  0  0  0  0  0  0  0
    5.2500   -1.2990    0.0000 C   0  0  0  0  0  0  0  0  0  0  0  0
    6.0000    0.0000    0.0000 Cl  0  0  0  0  0  0  0  0  0  0  0  0
    6.0000   -2.5981    0.0000 C   0  0  0  0  0  0  0  0  0  0  0  0
    5.2500   -3.8971    0.0000 C   0  0  0  0  0  0  0  0  0  0  0  0
    3.7500   -3.8971    0.0000 C   0  0  0  0  0  0  0  0  0  0  0  0
    3.0000   -5.1962    0.0000 O   0  0  0  0  0  0  0  0  0  0  0  0
    0.7500   -1.2990    0.0000 C   0  0  0  0  0  0  0  0  0  0  0  0
    1.5000    0.0000    0.0000 C   0  0  0  0  0  0  0  0  0  0  0  0
    3.0000    0.0000    0.0000 Cl  0  0  0  0  0  0  0  0  0  0  0  0
    0.7500    1.2990    0.0000 C   0  0  0  0  0  0  0  0  0  0  0  0
   -0.7500    1.2990    0.0000 C   0  0  0  0  0  0  0  0  0  0  0  0
   -1.5000    2.5981    0.0000 Cl  0  0  0  0  0  0  0  0  0  0  0  0
   -1.5000    0.0000    0.0000 C   0  0  0  0  0  0  0  0  0  0  0  0
   -0.7500   -1.2990    0.0000 C   0  0  0  0  0  0  0  0  0  0  0  0
   -1.5000   -2.5981    0.0000 N   0  0  0  0  0  0  0  0  0  0  0  0
   -0.7500   -3.8971    0.0000 C   0  0  0  0  0  0  0  0  0  0  0  0
   -1.5000   -5.1962    0.0000 O   0  0  0  0  0  0  0  0  0  0  0  0
  1  2  1  0
  2  3  2  0
  3  4  1  0
  4  5  2  0
  5  6  1  0
  6  7  1  0
  6  8  2  0
  8  9  1  0
  9 10  2  0
 10 11  1  0
  3 12  1  0
 12 13  2  0
 13 14  1  0
 13 15  1  0
 15 16  2  0
 16 17  1  0
 16 18  1  0
 18 19  2  0
 19 20  1  0
 20 21  1  0
 21 22  2  0
 21  2  1  0
 10  4  1  0
 19 12  1  0
M  END
>  <activity_comment>  (32) 
active

>  <activity_id>  (32) 
9622384

>  <activity_properties>  (32) 
[]

>  <assay_chembl_id>  (32) 
CHEMBL1963787

>  <assay_description>  (32) 
PUBCHEM_BIOASSAY: Navigating the Kinome. (Class of assay: other) Panel member name: CAMK2B

>  <assay_type>  (32) 
F

>  <bao_endpoint>  (32) 
BAO_0000192

>  <bao_format>  (32) 
BAO_0000019

>  <bao_label>  (32) 
assay format

>  <canonical_smiles>  (32) 
OC1=C(c2cc(Cl)ccc2O)c3c(Cl)cc(Cl)cc3NC1=O

>  <data_validity_comment>  (32) 
nan

>  <data_validity_description>  (32) 
nan

>  <document_chembl_id>  (32) 
CHEMBL1201862

>  <document_journal>  (32) 
nan

>  <document_year>  (32) 
nan

>  <ligand_efficiency>  (32) 
nan

>  <molecule_pref_name>  (32) 
nan

>  <parent_molecule_chembl_id>  (32) 
CHEMBL1974803

>  <pchembl_value>  (32) 
5.8

>  <potential_duplicate>  (32) 
False

>  <qudt_units>  (32) 
http://www.openphacts.org/units/Nanomolar

>  <record_id>  (32) 
1585340

>  <relation>  (32) 
=

>  <src_id>  (32) 
7

>  <standard_flag>  (32) 
True

>  <standard_relation>  (32) 
=

>  <standard_text_value>  (32) 
nan

>  <standard_type>  (32) 
Ki

>  <standard_units>  (32) 
nM

>  <standard_upper_value>  (32) 
nan

>  <standard_value>  (32) 
1584.89

>  <target_chembl_id>  (32) 
CHEMBL4121

>  <target_organism>  (32) 
Homo sapiens

>  <target_pref_name>  (32) 
CaM kinase II beta

>  <target_tax_id>  (32) 
9606

>  <text_value>  (32) 
nan

>  <toid>  (32) 
nan

>  <type>  (32) 
pKi

>  <units>  (32) 
nan

>  <uo_units>  (32) 
UO_0000065

>  <upper_value>  (32) 
nan

>  <value>  (32) 
5.8

>  <SMILES>  (32) 
OC1=C(c2cc(Cl)ccc2O)c3c(Cl)cc(Cl)cc3NC1=O

>  <NAME>  (32) 
CHEMBL1974803

>  <FILTER>  (32) 
OK

>  <MW>  (32) 
356.592

>  <LogP>  (32) 
4.5665

>  <HBD>  (32) 
3

>  <HBA>  (32) 
3

>  <TPSA>  (32) 
73.32

>  <Label>  (32) 
CAMK2B

$$$$
CHEMBL1970074
     RDKit          2D

 30 33  0  0  0  0  0  0  0  0999 V2000
   -2.6401   -3.1891    0.0000 C   0  0  0  0  0  0  0  0  0  0  0  0
   -1.2135   -2.7256    0.0000 C   0  0  0  0  0  0  0  0  0  0  0  0
   -0.0000   -3.6073    0.0000 N   0  0  0  0  0  0  0  0  0  0  0  0
    1.2135   -2.7256    0.0000 N   0  0  0  0  0  0  0  0  0  0  0  0
    0.7500   -1.2990    0.0000 C   0  0  0  0  0  0  0  0  0  0  0  0
    1.5000    0.0000    0.0000 C   0  0  0  0  0  0  0  0  0  0  0  0
    0.7500    1.2990    0.0000 C   0  0  0  0  0  0  0  0  0  0  0  0
   -0.7500    1.2990    0.0000 C   0  0  0  0  0  0  0  0  0  0  0  0
   -1.5000    0.0000    0.0000 C   0  0  0  0  0  0  0  0  0  0  0  0
   -3.0000    0.0000    0.0000 C   0  0  0  0  0  0  0  0  0  0  0  0
   -3.7500    1.2990    0.0000 C   0  0  0  0  0  0  0  0  0  0  0  0
   -5.2500    1.2990    0.0000 C   0  0  0  0  0  0  0  0  0  0  0  0
   -6.0000    0.0000    0.0000 C   0  0  0  0  0  0  0  0  0  0  0  0
   -7.5000    0.0000    0.0000 N   0  0  0  0  0  0  0  0  0  0  0  0
   -8.2500    1.2990    0.0000 C   0  0  0  0  0  0  0  0  0  0  0  0
   -7.5000    2.5981    0.0000 O   0  0  0  0  0  0  0  0  0  0  0  0
   -9.7500    1.2990    0.0000 N   0  0  0  0  0  0  0  0  0  0  0  0
  -10.5000    2.5981    0.0000 C   0  0  0  0  0  0  0  0  0  0  0  0
   -9.7500    3.8971    0.0000 C   0  0  0  0  0  0  0  0  0  0  0  0
  -10.5000    5.1962    0.0000 C   0  0  0  0  0  0  0  0  0  0  0  0
  -12.0000    5.1962    0.0000 C   0  0  0  0  0  0  0  0  0  0  0  0
  -12.7500    3.8971    0.0000 C   0  0  0  0  0  0  0  0  0  0  0  0
  -12.0000    2.5981    0.0000 C   0  0  0  0  0  0  0  0  0  0  0  0
  -14.2500    3.8971    0.0000 C   0  0  0  0  0  0  0  0  0  0  0  0
  -15.7500    3.8971    0.0000 F   0  0  0  0  0  0  0  0  0  0  0  0
  -14.2500    5.3971    0.0000 F   0  0  0  0  0  0  0  0  0  0  0  0
  -14.2500    2.3971    0.0000 F   0  0  0  0  0  0  0  0  0  0  0  0
   -5.2500   -1.2990    0.0000 C   0  0  0  0  0  0  0  0  0  0  0  0
   -3.7500   -1.2990    0.0000 C   0  0  0  0  0  0  0  0  0  0  0  0
   -0.7500   -1.2990    0.0000 C   0  0  0  0  0  0  0  0  0  0  0  0
  1  2  1  0
  2  3  2  0
  3  4  1  0
  4  5  1  0
  5  6  2  0
  6  7  1  0
  7  8  2  0
  8  9  1  0
  9 10  1  0
 10 11  2  0
 11 12  1  0
 12 13  2  0
 13 14  1  0
 14 15  1  0
 15 16  2  0
 15 17  1  0
 17 18  1  0
 18 19  2  0
 19 20  1  0
 20 21  2  0
 21 22  1  0
 22 23  2  0
 22 24  1  0
 24 25  1  0
 24 26  1  0
 24 27  1  0
 13 28  1  0
 28 29  2  0
  9 30  2  0
 30  2  1  0
 30  5  1  0
 29 10  1  0
 23 18  1  0
M  END
>  <activity_comment>  (33) 
active

>  <activity_id>  (33) 
9622385

>  <activity_properties>  (33) 
[]

>  <assay_chembl_id>  (33) 
CHEMBL1963787

>  <assay_description>  (33) 
PUBCHEM_BIOASSAY: Navigating the Kinome. (Class of assay: other) Panel member name: CAMK2B

>  <assay_type>  (33) 
F

>  <bao_endpoint>  (33) 
BAO_0000192

>  <bao_format>  (33) 
BAO_0000019

>  <bao_label>  (33) 
assay format

>  <canonical_smiles>  (33) 
Cc1n[nH]c2cccc(c3ccc(NC(=O)Nc4cccc(c4)C(F)(F)F)cc3)c12

>  <data_validity_comment>  (33) 
nan

>  <data_validity_description>  (33) 
nan

>  <document_chembl_id>  (33) 
CHEMBL1201862

>  <document_journal>  (33) 
nan

>  <document_year>  (33) 
nan

>  <ligand_efficiency>  (33) 
nan

>  <molecule_pref_name>  (33) 
nan

>  <parent_molecule_chembl_id>  (33) 
CHEMBL1970074

>  <pchembl_value>  (33) 
5.2

>  <potential_duplicate>  (33) 
False

>  <qudt_units>  (33) 
http://www.openphacts.org/units/Nanomolar

>  <record_id>  (33) 
1584240

>  <relation>  (33) 
=

>  <src_id>  (33) 
7

>  <standard_flag>  (33) 
True

>  <standard_relation>  (33) 
=

>  <standard_text_value>  (33) 
nan

>  <standard_type>  (33) 
Ki

>  <standard_units>  (33) 
nM

>  <standard_upper_value>  (33) 
nan

>  <standard_value>  (33) 
6309.57

>  <target_chembl_id>  (33) 
CHEMBL4121

>  <target_organism>  (33) 
Homo sapiens

>  <target_pref_name>  (33) 
CaM kinase II beta

>  <target_tax_id>  (33) 
9606

>  <text_value>  (33) 
nan

>  <toid>  (33) 
nan

>  <type>  (33) 
pKi

>  <units>  (33) 
nan

>  <uo_units>  (33) 
UO_0000065

>  <upper_value>  (33) 
nan

>  <value>  (33) 
5.2

>  <SMILES>  (33) 
Cc1n[nH]c2cccc(c3ccc(NC(=O)Nc4cccc(c4)C(F)(F)F)cc3)c12

>  <NAME>  (33) 
CHEMBL1970074

>  <FILTER>  (33) 
OK

>  <MW>  (33) 
410.399

>  <LogP>  (33) 
6.20112

>  <HBD>  (33) 
3

>  <HBA>  (33) 
2

>  <TPSA>  (33) 
69.81

>  <Label>  (33) 
CAMK2B

$$$$
CHEMBL1958401
     RDKit          2D

 20 22  0  0  0  0  0  0  0  0999 V2000
    3.0000    0.0000    0.0000 O   0  0  0  0  0  0  0  0  0  0  0  0
    1.5000    0.0000    0.0000 C   0  0  0  0  0  0  0  0  0  0  0  0
    0.7500   -1.2990    0.0000 N   0  0  0  0  0  0  0  0  0  0  0  0
   -0.7500   -1.2990    0.0000 C   0  0  0  0  0  0  0  0  0  0  0  0
   -1.5000    0.0000    0.0000 N   0  0  0  0  0  0  0  0  0  0  0  0
   -0.7500    1.2990    0.0000 C   0  0  0  0  0  0  0  0  0  0  0  0
    0.7500    1.2990    0.0000 C   0  0  0  0  0  0  0  0  0  0  0  0
   -1.5000    2.5981    0.0000 C   0  0  0  0  0  0  0  0  0  0  0  0
   -0.7500    3.8971    0.0000 C   0  0  0  0  0  0  0  0  0  0  0  0
   -1.5000    5.1962    0.0000 C   0  0  0  0  0  0  0  0  0  0  0  0
   -3.0000    5.1962    0.0000 N   0  0  0  0  0  0  0  0  0  0  0  0
   -3.7500    3.8971    0.0000 C   0  0  0  0  0  0  0  0  0  0  0  0
   -3.0000    2.5981    0.0000 C   0  0  0  0  0  0  0  0  0  0  0  0
   -1.5000   -2.5981    0.0000 N   0  0  0  0  0  0  0  0  0  0  0  0
   -3.0000   -2.5981    0.0000 C   0  0  0  0  0  0  0  0  0  0  0  0
   -3.7500   -1.2990    0.0000 C   0  0  0  0  0  0  0  0  0  0  0  0
   -5.2500   -1.2990    0.0000 C   0  0  0  0  0  0  0  0  0  0  0  0
   -6.0000   -2.5981    0.0000 C   0  0  0  0  0  0  0  0  0  0  0  0
   -5.2500   -3.8971    0.0000 C   0  0  0  0  0  0  0  0  0  0  0  0
   -3.7500   -3.8971    0.0000 C   0  0  0  0  0  0  0  0  0  0  0  0
  1  2  2  0
  2  3  1  0
  3  4  1  0
  4  5  2  0
  5  6  1  0
  6  7  2  0
  6  8  1  0
  8  9  2  0
  9 10  1  0
 10 11  2  0
 11 12  1  0
 12 13  2  0
  4 14  1  0
 14 15  1  0
 15 16  1  0
 16 17  1  0
 17 18  1  0
 18 19  1  0
 19 20  1  0
  7  2  1  0
 13  8  1  0
 20 15  1  0
M  END
>  <activity_comment>  (34) 
active

>  <activity_id>  (34) 
9622388

>  <activity_properties>  (34) 
[]

>  <assay_chembl_id>  (34) 
CHEMBL1963787

>  <assay_description>  (34) 
PUBCHEM_BIOASSAY: Navigating the Kinome. (Class of assay: other) Panel member name: CAMK2B

>  <assay_type>  (34) 
F

>  <bao_endpoint>  (34) 
BAO_0000192

>  <bao_format>  (34) 
BAO_0000019

>  <bao_label>  (34) 
assay format

>  <canonical_smiles>  (34) 
O=C1NC(=NC(=C1)c2ccncc2)NC3CCCCC3

>  <data_validity_comment>  (34) 
nan

>  <data_validity_description>  (34) 
nan

>  <document_chembl_id>  (34) 
CHEMBL1201862

>  <document_journal>  (34) 
nan

>  <document_year>  (34) 
nan

>  <ligand_efficiency>  (34) 
nan

>  <molecule_pref_name>  (34) 
nan

>  <parent_molecule_chembl_id>  (34) 
CHEMBL1958401

>  <pchembl_value>  (34) 
5.3

>  <potential_duplicate>  (34) 
False

>  <qudt_units>  (34) 
http://www.openphacts.org/units/Nanomolar

>  <record_id>  (34) 
1584680

>  <relation>  (34) 
=

>  <src_id>  (34) 
7

>  <standard_flag>  (34) 
True

>  <standard_relation>  (34) 
=

>  <standard_text_value>  (34) 
nan

>  <standard_type>  (34) 
Ki

>  <standard_units>  (34) 
nM

>  <standard_upper_value>  (34) 
nan

>  <standard_value>  (34) 
5011.87

>  <target_chembl_id>  (34) 
CHEMBL4121

>  <target_organism>  (34) 
Homo sapiens

>  <target_pref_name>  (34) 
CaM kinase II beta

>  <target_tax_id>  (34) 
9606

>  <text_value>  (34) 
nan

>  <toid>  (34) 
nan

>  <type>  (34) 
pKi

>  <units>  (34) 
nan

>  <uo_units>  (34) 
UO_0000065

>  <upper_value>  (34) 
nan

>  <value>  (34) 
5.3

>  <SMILES>  (34) 
O=C1NC(=NC(=C1)c2ccncc2)NC3CCCCC3

>  <NAME>  (34) 
CHEMBL1958401

>  <FILTER>  (34) 
OK

>  <MW>  (34) 
270.336

>  <LogP>  (34) 
2.5765

>  <HBD>  (34) 
2

>  <HBA>  (34) 
4

>  <TPSA>  (34) 
70.67

>  <Label>  (34) 
CAMK2B

$$$$
CHEMBL2002992
     RDKit          2D

 21 23  0  0  0  0  0  0  0  0999 V2000
  -11.5094    1.4435    0.0000 C   0  0  0  0  0  0  0  0  0  0  0  0
  -10.3946    0.4398    0.0000 C   0  0  0  0  0  0  0  0  0  0  0  0
  -10.7065   -1.0275    0.0000 N   0  0  0  0  0  0  0  0  0  0  0  0
   -8.9681    0.9033    0.0000 C   0  0  0  0  0  0  0  0  0  0  0  0
   -8.6562    2.3705    0.0000 C   0  0  0  0  0  0  0  0  0  0  0  0
   -7.2296    2.8340    0.0000 C   0  0  0  0  0  0  0  0  0  0  0  0
   -6.1149    1.8303    0.0000 C   0  0  0  0  0  0  0  0  0  0  0  0
   -6.4268    0.3631    0.0000 C   0  0  0  0  0  0  0  0  0  0  0  0
   -7.8533   -0.1004    0.0000 C   0  0  0  0  0  0  0  0  0  0  0  0
   -4.6883    2.2939    0.0000 C   0  0  0  0  0  0  0  0  0  0  0  0
   -4.3764    3.7611    0.0000 O   0  0  0  0  0  0  0  0  0  0  0  0
   -3.5736    1.2902    0.0000 N   0  0  0  0  0  0  0  0  0  0  0  0
   -2.1470    1.7537    0.0000 C   0  0  0  0  0  0  0  0  0  0  0  0
   -1.8351    3.2209    0.0000 C   0  0  0  0  0  0  0  0  0  0  0  0
   -0.4086    3.6844    0.0000 C   0  0  0  0  0  0  0  0  0  0  0  0
    0.7062    2.6807    0.0000 N   0  0  0  0  0  0  0  0  0  0  0  0
    0.3943    1.2135    0.0000 C   0  0  0  0  0  0  0  0  0  0  0  0
    1.2760    0.0000    0.0000 N   0  0  0  0  0  0  0  0  0  0  0  0
    0.3943   -1.2135    0.0000 C   0  0  0  0  0  0  0  0  0  0  0  0
   -1.0323   -0.7500    0.0000 C   0  0  0  0  0  0  0  0  0  0  0  0
   -1.0323    0.7500    0.0000 C   0  0  0  0  0  0  0  0  0  0  0  0
  1  2  1  0
  2  3  1  0
  2  4  1  0
  4  5  1  0
  5  6  1  0
  6  7  1  0
  7  8  1  0
  8  9  1  0
  7 10  1  0
 10 11  2  0
 10 12  1  0
 12 13  1  0
 13 14  2  0
 14 15  1  0
 15 16  2  0
 16 17  1  0
 17 18  1  0
 18 19  1  0
 19 20  2  0
 20 21  1  0
  9  4  1  0
 21 13  1  0
 21 17  2  0
M  END
>  <activity_comment>  (35) 
active

>  <activity_id>  (35) 
9622393

>  <activity_properties>  (35) 
[]

>  <assay_chembl_id>  (35) 
CHEMBL1963787

>  <assay_description>  (35) 
PUBCHEM_BIOASSAY: Navigating the Kinome. (Class of assay: other) Panel member name: CAMK2B

>  <assay_type>  (35) 
F

>  <bao_endpoint>  (35) 
BAO_0000192

>  <bao_format>  (35) 
BAO_0000019

>  <bao_label>  (35) 
assay format

>  <canonical_smiles>  (35) 
CC(N)C1CCC(CC1)C(=O)Nc2ccnc3[nH]ccc23

>  <data_validity_comment>  (35) 
nan

>  <data_validity_description>  (35) 
nan

>  <document_chembl_id>  (35) 
CHEMBL1201862

>  <document_journal>  (35) 
nan

>  <document_year>  (35) 
nan

>  <ligand_efficiency>  (35) 
nan

>  <molecule_pref_name>  (35) 
nan

>  <parent_molecule_chembl_id>  (35) 
CHEMBL2002992

>  <pchembl_value>  (35) 
5.4

>  <potential_duplicate>  (35) 
False

>  <qudt_units>  (35) 
http://www.openphacts.org/units/Nanomolar

>  <record_id>  (35) 
1585496

>  <relation>  (35) 
=

>  <src_id>  (35) 
7

>  <standard_flag>  (35) 
True

>  <standard_relation>  (35) 
=

>  <standard_text_value>  (35) 
nan

>  <standard_type>  (35) 
Ki

>  <standard_units>  (35) 
nM

>  <standard_upper_value>  (35) 
nan

>  <standard_value>  (35) 
3981.07

>  <target_chembl_id>  (35) 
CHEMBL4121

>  <target_organism>  (35) 
Homo sapiens

>  <target_pref_name>  (35) 
CaM kinase II beta

>  <target_tax_id>  (35) 
9606

>  <text_value>  (35) 
nan

>  <toid>  (35) 
nan

>  <type>  (35) 
pKi

>  <units>  (35) 
nan

>  <uo_units>  (35) 
UO_0000065

>  <upper_value>  (35) 
nan

>  <value>  (35) 
5.4

>  <SMILES>  (35) 
CC(N)C1CCC(CC1)C(=O)Nc2ccnc3[nH]ccc23

>  <NAME>  (35) 
CHEMBL2002992

>  <FILTER>  (35) 
OK

>  <MW>  (35) 
286.379

>  <LogP>  (35) 
2.655

>  <HBD>  (35) 
3

>  <HBA>  (35) 
3

>  <TPSA>  (35) 
83.8

>  <Label>  (35) 
CAMK2B

$$$$
CHEMBL1990635
     RDKit          2D

 28 31  0  0  0  0  0  0  0  0999 V2000
   -3.9391   -7.7755    0.0000 C   0  0  0  0  0  0  0  0  0  0  0  0
   -2.5126   -8.2390    0.0000 C   0  0  0  0  0  0  0  0  0  0  0  0
   -2.0490   -9.6656    0.0000 C   0  0  0  0  0  0  0  0  0  0  0  0
   -0.5490   -9.6656    0.0000 C   0  0  0  0  0  0  0  0  0  0  0  0
   -0.0855   -8.2390    0.0000 C   0  0  0  0  0  0  0  0  0  0  0  0
   -1.2990   -7.3573    0.0000 N   0  0  0  0  0  0  0  0  0  0  0  0
   -1.2990   -5.8573    0.0000 C   0  0  0  0  0  0  0  0  0  0  0  0
   -0.0000   -5.1073    0.0000 C   0  0  0  0  0  0  0  0  0  0  0  0
   -0.0000   -3.6073    0.0000 C   0  0  0  0  0  0  0  0  0  0  0  0
    1.2135   -2.7256    0.0000 C   0  0  0  0  0  0  0  0  0  0  0  0
    0.7500   -1.2990    0.0000 C   0  0  0  0  0  0  0  0  0  0  0  0
    1.5000    0.0000    0.0000 C   0  0  0  0  0  0  0  0  0  0  0  0
    0.7500    1.2990    0.0000 C   0  0  0  0  0  0  0  0  0  0  0  0
   -0.7500    1.2990    0.0000 C   0  0  0  0  0  0  0  0  0  0  0  0
   -1.5000    0.0000    0.0000 C   0  0  0  0  0  0  0  0  0  0  0  0
   -0.7500   -1.2990    0.0000 C   0  0  0  0  0  0  0  0  0  0  0  0
   -1.2135   -2.7256    0.0000 N   0  0  0  0  0  0  0  0  0  0  0  0
    1.5000    2.5981    0.0000 C   0  0  0  0  0  0  0  0  0  0  0  0
    3.0000    2.5981    0.0000 C   0  0  0  0  0  0  0  0  0  0  0  0
    3.7500    3.8971    0.0000 C   0  0  0  0  0  0  0  0  0  0  0  0
    3.0000    5.1962    0.0000 C   0  0  0  0  0  0  0  0  0  0  0  0
    3.7500    6.4952    0.0000 O   0  0  0  0  0  0  0  0  0  0  0  0
    5.2500    6.4952    0.0000 C   0  0  0  0  0  0  0  0  0  0  0  0
    6.7500    6.4952    0.0000 F   0  0  0  0  0  0  0  0  0  0  0  0
    5.2500    7.9952    0.0000 F   0  0  0  0  0  0  0  0  0  0  0  0
    5.2500    4.9952    0.0000 F   0  0  0  0  0  0  0  0  0  0  0  0
    1.5000    5.1962    0.0000 C   0  0  0  0  0  0  0  0  0  0  0  0
    0.7500    3.8971    0.0000 C   0  0  0  0  0  0  0  0  0  0  0  0
  1  2  1  0
  2  3  1  0
  3  4  1  0
  4  5  1  0
  5  6  1  0
  6  7  1  0
  7  8  1  0
  8  9  1  0
  9 10  2  0
 10 11  1  0
 11 12  2  0
 12 13  1  0
 13 14  2  0
 14 15  1  0
 15 16  2  0
 16 17  1  0
 13 18  1  0
 18 19  2  0
 19 20  1  0
 20 21  2  0
 21 22  1  0
 22 23  1  0
 23 24  1  0
 23 25  1  0
 23 26  1  0
 21 27  1  0
 27 28  2  0
  6  2  1  0
 17  9  1  0
 16 11  1  0
 28 18  1  0
M  END
>  <activity_comment>  (36) 
active

>  <activity_id>  (36) 
9622396

>  <activity_properties>  (36) 
[]

>  <assay_chembl_id>  (36) 
CHEMBL1963787

>  <assay_description>  (36) 
PUBCHEM_BIOASSAY: Navigating the Kinome. (Class of assay: other) Panel member name: CAMK2B

>  <assay_type>  (36) 
F

>  <bao_endpoint>  (36) 
BAO_0000192

>  <bao_format>  (36) 
BAO_0000019

>  <bao_label>  (36) 
assay format

>  <canonical_smiles>  (36) 
CC1CCCN1CCc2cc3cc(ccc3[nH]2)c4ccc(OC(F)(F)F)cc4

>  <data_validity_comment>  (36) 
nan

>  <data_validity_description>  (36) 
nan

>  <document_chembl_id>  (36) 
CHEMBL1201862

>  <document_journal>  (36) 
nan

>  <document_year>  (36) 
nan

>  <ligand_efficiency>  (36) 
nan

>  <molecule_pref_name>  (36) 
nan

>  <parent_molecule_chembl_id>  (36) 
CHEMBL1990635

>  <pchembl_value>  (36) 
5.4

>  <potential_duplicate>  (36) 
False

>  <qudt_units>  (36) 
http://www.openphacts.org/units/Nanomolar

>  <record_id>  (36) 
1585360

>  <relation>  (36) 
=

>  <src_id>  (36) 
7

>  <standard_flag>  (36) 
True

>  <standard_relation>  (36) 
=

>  <standard_text_value>  (36) 
nan

>  <standard_type>  (36) 
Ki

>  <standard_units>  (36) 
nM

>  <standard_upper_value>  (36) 
nan

>  <standard_value>  (36) 
3981.07

>  <target_chembl_id>  (36) 
CHEMBL4121

>  <target_organism>  (36) 
Homo sapiens

>  <target_pref_name>  (36) 
CaM kinase II beta

>  <target_tax_id>  (36) 
9606

>  <text_value>  (36) 
nan

>  <toid>  (36) 
nan

>  <type>  (36) 
pKi

>  <units>  (36) 
nan

>  <uo_units>  (36) 
UO_0000065

>  <upper_value>  (36) 
nan

>  <value>  (36) 
5.4

>  <SMILES>  (36) 
CC1CCCN1CCc2cc3cc(ccc3[nH]2)c4ccc(OC(F)(F)F)cc4

>  <NAME>  (36) 
CHEMBL1990635

>  <FILTER>  (36) 
OK

>  <MW>  (36) 
388.433

>  <LogP>  (36) 
5.7603

>  <HBD>  (36) 
1

>  <HBA>  (36) 
2

>  <TPSA>  (36) 
28.26

>  <Label>  (36) 
CAMK2B

$$$$
CHEMBL1968791
     RDKit          2D

 35 40  0  0  0  0  0  0  0  0999 V2000
   -0.0000   -5.1073    0.0000 C   0  0  0  0  0  0  0  0  0  0  0  0
   -0.0000   -3.6073    0.0000 C   0  0  0  0  0  0  0  0  0  0  0  0
    1.2135   -2.7256    0.0000 C   0  0  0  0  0  0  0  0  0  0  0  0
    2.6401   -3.1891    0.0000 C   0  0  0  0  0  0  0  0  0  0  0  0
    2.9520   -4.6564    0.0000 C   0  0  0  0  0  0  0  0  0  0  0  0
    4.3786   -5.1199    0.0000 C   0  0  0  0  0  0  0  0  0  0  0  0
    5.4933   -4.1162    0.0000 C   0  0  0  0  0  0  0  0  0  0  0  0
    5.1814   -2.6490    0.0000 C   0  0  0  0  0  0  0  0  0  0  0  0
    6.2961   -1.6453    0.0000 O   0  0  0  0  0  0  0  0  0  0  0  0
    7.7227   -2.1088    0.0000 C   0  0  0  0  0  0  0  0  0  0  0  0
    8.8374   -1.1051    0.0000 C   0  0  0  0  0  0  0  0  0  0  0  0
   10.2640   -1.5686    0.0000 C   0  0  0  0  0  0  0  0  0  0  0  0
   11.3787   -0.5649    0.0000 C   0  0  0  0  0  0  0  0  0  0  0  0
   11.0669    0.9023    0.0000 C   0  0  0  0  0  0  0  0  0  0  0  0
    9.6403    1.3658    0.0000 C   0  0  0  0  0  0  0  0  0  0  0  0
    8.5256    0.3621    0.0000 C   0  0  0  0  0  0  0  0  0  0  0  0
    3.7548   -2.1855    0.0000 C   0  0  0  0  0  0  0  0  0  0  0  0
    0.7500   -1.2990    0.0000 C   0  0  0  0  0  0  0  0  0  0  0  0
    1.5000    0.0000    0.0000 C   0  0  0  0  0  0  0  0  0  0  0  0
    3.0000    0.0000    0.0000 N   0  0  0  0  0  0  0  0  0  0  0  0
    0.7500    1.2990    0.0000 N   0  0  0  0  0  0  0  0  0  0  0  0
   -0.7500    1.2990    0.0000 C   0  0  0  0  0  0  0  0  0  0  0  0
   -1.5000    0.0000    0.0000 N   0  0  0  0  0  0  0  0  0  0  0  0
   -0.7500   -1.2990    0.0000 C   0  0  0  0  0  0  0  0  0  0  0  0
   -1.2135   -2.7256    0.0000 N   0  0  0  0  0  0  0  0  0  0  0  0
   -2.6401   -3.1891    0.0000 C   0  0  0  0  0  0  0  0  0  0  0  0
   -3.9766   -2.5082    0.0000 C   0  0  0  0  0  0  0  0  0  0  0  0
   -4.6576   -3.8447    0.0000 C   0  0  0  0  0  0  0  0  0  0  0  0
   -6.0842   -4.3082    0.0000 C   0  0  0  0  0  0  0  0  0  0  0  0
   -7.1989   -3.3045    0.0000 N   0  0  0  0  0  0  0  0  0  0  0  0
   -8.6661   -3.6164    0.0000 C   0  0  0  0  0  0  0  0  0  0  0  0
   -9.4161   -2.3173    0.0000 C   0  0  0  0  0  0  0  0  0  0  0  0
   -8.4124   -1.2026    0.0000 C   0  0  0  0  0  0  0  0  0  0  0  0
   -7.0421   -1.8127    0.0000 C   0  0  0  0  0  0  0  0  0  0  0  0
   -3.3211   -4.5257    0.0000 C   0  0  0  0  0  0  0  0  0  0  0  0
  1  2  1  0
  2  3  2  0
  3  4  1  0
  4  5  2  0
  5  6  1  0
  6  7  2  0
  7  8  1  0
  8  9  1  0
  9 10  1  0
 10 11  1  0
 11 12  2  0
 12 13  1  0
 13 14  2  0
 14 15  1  0
 15 16  2  0
  8 17  2  0
  3 18  1  0
 18 19  2  0
 19 20  1  0
 19 21  1  0
 21 22  2  0
 22 23  1  0
 23 24  2  0
 24 25  1  0
 25 26  1  0
 26 27  1  0
 27 28  1  0
 28 29  1  0
 29 30  1  0
 30 31  1  0
 31 32  1  0
 32 33  1  0
 33 34  1  0
 28 35  1  0
 25  2  1  0
 17  4  1  0
 16 11  1  0
 24 18  1  0
 35 26  1  0
 34 30  1  0
M  END
>  <activity_comment>  (37) 
active

>  <activity_id>  (37) 
9622397

>  <activity_properties>  (37) 
[]

>  <assay_chembl_id>  (37) 
CHEMBL1963787

>  <assay_description>  (37) 
PUBCHEM_BIOASSAY: Navigating the Kinome. (Class of assay: other) Panel member name: CAMK2B

>  <assay_type>  (37) 
F

>  <bao_endpoint>  (37) 
BAO_0000192

>  <bao_format>  (37) 
BAO_0000019

>  <bao_label>  (37) 
assay format

>  <canonical_smiles>  (37) 
Cc1c(c2cccc(OCc3ccccc3)c2)c4c(N)ncnc4n1C5CC(CN6CCCC6)C5

>  <data_validity_comment>  (37) 
nan

>  <data_validity_description>  (37) 
nan

>  <document_chembl_id>  (37) 
CHEMBL1201862

>  <document_journal>  (37) 
nan

>  <document_year>  (37) 
nan

>  <ligand_efficiency>  (37) 
nan

>  <molecule_pref_name>  (37) 
nan

>  <parent_molecule_chembl_id>  (37) 
CHEMBL1968791

>  <pchembl_value>  (37) 
5.5

>  <potential_duplicate>  (37) 
False

>  <qudt_units>  (37) 
http://www.openphacts.org/units/Nanomolar

>  <record_id>  (37) 
1584875

>  <relation>  (37) 
=

>  <src_id>  (37) 
7

>  <standard_flag>  (37) 
True

>  <standard_relation>  (37) 
=

>  <standard_text_value>  (37) 
nan

>  <standard_type>  (37) 
Ki

>  <standard_units>  (37) 
nM

>  <standard_upper_value>  (37) 
nan

>  <standard_value>  (37) 
3162.28

>  <target_chembl_id>  (37) 
CHEMBL4121

>  <target_organism>  (37) 
Homo sapiens

>  <target_pref_name>  (37) 
CaM kinase II beta

>  <target_tax_id>  (37) 
9606

>  <text_value>  (37) 
nan

>  <toid>  (37) 
nan

>  <type>  (37) 
pKi

>  <units>  (37) 
nan

>  <uo_units>  (37) 
UO_0000065

>  <upper_value>  (37) 
nan

>  <value>  (37) 
5.5

>  <SMILES>  (37) 
Cc1c(c2cccc(OCc3ccccc3)c2)c4c(N)ncnc4n1C5CC(CN6CCCC6)C5

>  <NAME>  (37) 
CHEMBL1968791

>  <FILTER>  (37) 
OK

>  <MW>  (37) 
467.617

>  <LogP>  (37) 
5.61482

>  <HBD>  (37) 
1

>  <HBA>  (37) 
6

>  <TPSA>  (37) 
69.2

>  <Label>  (37) 
CAMK2B

$$$$
CHEMBL2002682
     RDKit          2D

 43 47  0  0  0  0  0  0  0  0999 V2000
  -13.1524   -8.9572    0.0000 C   0  0  0  0  0  0  0  0  0  0  0  0
  -13.4643   -7.4900    0.0000 C   0  0  0  0  0  0  0  0  0  0  0  0
  -14.8909   -7.0265    0.0000 C   0  0  0  0  0  0  0  0  0  0  0  0
  -15.2027   -5.5593    0.0000 C   0  0  0  0  0  0  0  0  0  0  0  0
  -14.0880   -4.5556    0.0000 C   0  0  0  0  0  0  0  0  0  0  0  0
  -12.6614   -5.0191    0.0000 C   0  0  0  0  0  0  0  0  0  0  0  0
  -11.5467   -4.0154    0.0000 Cl  0  0  0  0  0  0  0  0  0  0  0  0
  -12.3496   -6.4863    0.0000 C   0  0  0  0  0  0  0  0  0  0  0  0
  -10.9230   -6.9498    0.0000 C   0  0  0  0  0  0  0  0  0  0  0  0
  -10.6111   -8.4171    0.0000 C   0  0  0  0  0  0  0  0  0  0  0  0
   -9.1845   -8.8806    0.0000 C   0  0  0  0  0  0  0  0  0  0  0  0
   -8.0698   -7.8769    0.0000 C   0  0  0  0  0  0  0  0  0  0  0  0
   -8.3817   -6.4097    0.0000 C   0  0  0  0  0  0  0  0  0  0  0  0
   -7.5000   -5.1962    0.0000 C   0  0  0  0  0  0  0  0  0  0  0  0
   -6.0000   -5.1962    0.0000 C   0  0  0  0  0  0  0  0  0  0  0  0
   -5.2500   -3.8971    0.0000 C   0  0  0  0  0  0  0  0  0  0  0  0
   -3.7500   -3.8971    0.0000 C   0  0  0  0  0  0  0  0  0  0  0  0
   -3.0000   -2.5981    0.0000 O   0  0  0  0  0  0  0  0  0  0  0  0
   -1.5000   -2.5981    0.0000 C   0  0  0  0  0  0  0  0  0  0  0  0
   -0.7500   -3.8971    0.0000 C   0  0  0  0  0  0  0  0  0  0  0  0
    0.7500   -3.8971    0.0000 C   0  0  0  0  0  0  0  0  0  0  0  0
    1.5000   -2.5981    0.0000 C   0  0  0  0  0  0  0  0  0  0  0  0
    0.7500   -1.2990    0.0000 C   0  0  0  0  0  0  0  0  0  0  0  0
    1.5000    0.0000    0.0000 C   0  0  0  0  0  0  0  0  0  0  0  0
    0.7500    1.2990    0.0000 C   0  0  0  0  0  0  0  0  0  0  0  0
   -0.7500    1.2990    0.0000 C   0  0  0  0  0  0  0  0  0  0  0  0
   -1.5000    0.0000    0.0000 C   0  0  0  0  0  0  0  0  0  0  0  0
   -0.7500   -1.2990    0.0000 C   0  0  0  0  0  0  0  0  0  0  0  0
   -8.3817   -3.9826    0.0000 C   0  0  0  0  0  0  0  0  0  0  0  0
   -9.8083   -4.4462    0.0000 N   0  0  0  0  0  0  0  0  0  0  0  0
   -9.8083   -5.9462    0.0000 C   0  0  0  0  0  0  0  0  0  0  0  0
   -7.9182   -2.5560    0.0000 C   0  0  0  0  0  0  0  0  0  0  0  0
   -6.4509   -2.2442    0.0000 O   0  0  0  0  0  0  0  0  0  0  0  0
   -8.9218   -1.4413    0.0000 N   0  0  0  0  0  0  0  0  0  0  0  0
   -8.4583   -0.0147    0.0000 C   0  0  0  0  0  0  0  0  0  0  0  0
   -9.4620    1.1000    0.0000 C   0  0  0  0  0  0  0  0  0  0  0  0
   -8.9985    2.5266    0.0000 O   0  0  0  0  0  0  0  0  0  0  0  0
  -10.0022    3.6413    0.0000 C   0  0  0  0  0  0  0  0  0  0  0  0
   -9.5387    5.0679    0.0000 C   0  0  0  0  0  0  0  0  0  0  0  0
  -10.5424    6.1826    0.0000 O   0  0  0  0  0  0  0  0  0  0  0  0
  -10.0788    7.6092    0.0000 C   0  0  0  0  0  0  0  0  0  0  0  0
  -11.0825    8.7239    0.0000 C   0  0  0  0  0  0  0  0  0  0  0  0
  -10.6190   10.1505    0.0000 N   0  0  0  0  0  0  0  0  0  0  0  0
  1  2  1  0
  2  3  2  0
  3  4  1  0
  4  5  2  0
  5  6  1  0
  6  7  1  0
  6  8  2  0
  8  9  1  0
  9 10  2  0
 10 11  1  0
 11 12  2  0
 12 13  1  0
 13 14  1  0
 14 15  1  0
 15 16  1  0
 16 17  1  0
 17 18  1  0
 18 19  1  0
 19 20  2  0
 20 21  1  0
 21 22  2  0
 22 23  1  0
 23 24  2  0
 24 25  1  0
 25 26  2  0
 26 27  1  0
 27 28  2  0
 14 29  2  0
 29 30  1  0
 30 31  1  0
 29 32  1  0
 32 33  2  0
 32 34  1  0
 34 35  1  0
 35 36  1  0
 36 37  1  0
 37 38  1  0
 38 39  1  0
 39 40  1  0
 40 41  1  0
 41 42  1  0
 42 43  1  0
  8  2  1  0
 31  9  1  0
 31 13  2  0
 28 19  1  0
 28 23  1  0
M  END
>  <activity_comment>  (38) 
active

>  <activity_id>  (38) 
9622398

>  <activity_properties>  (38) 
[]

>  <assay_chembl_id>  (38) 
CHEMBL1963787

>  <assay_description>  (38) 
PUBCHEM_BIOASSAY: Navigating the Kinome. (Class of assay: other) Panel member name: CAMK2B

>  <assay_type>  (38) 
F

>  <bao_endpoint>  (38) 
BAO_0000192

>  <bao_format>  (38) 
BAO_0000019

>  <bao_label>  (38) 
assay format

>  <canonical_smiles>  (38) 
Cc1cccc(Cl)c1c2cccc3c(CCCOc4cccc5ccccc45)c([nH]c23)C(=O)NCCOCCOCCN

>  <data_validity_comment>  (38) 
nan

>  <data_validity_description>  (38) 
nan

>  <document_chembl_id>  (38) 
CHEMBL1201862

>  <document_journal>  (38) 
nan

>  <document_year>  (38) 
nan

>  <ligand_efficiency>  (38) 
nan

>  <molecule_pref_name>  (38) 
nan

>  <parent_molecule_chembl_id>  (38) 
CHEMBL2002682

>  <pchembl_value>  (38) 
5.7

>  <potential_duplicate>  (38) 
False

>  <qudt_units>  (38) 
http://www.openphacts.org/units/Nanomolar

>  <record_id>  (38) 
1585055

>  <relation>  (38) 
=

>  <src_id>  (38) 
7

>  <standard_flag>  (38) 
True

>  <standard_relation>  (38) 
=

>  <standard_text_value>  (38) 
nan

>  <standard_type>  (38) 
Ki

>  <standard_units>  (38) 
nM

>  <standard_upper_value>  (38) 
nan

>  <standard_value>  (38) 
1995.26

>  <target_chembl_id>  (38) 
CHEMBL4121

>  <target_organism>  (38) 
Homo sapiens

>  <target_pref_name>  (38) 
CaM kinase II beta

>  <target_tax_id>  (38) 
9606

>  <text_value>  (38) 
nan

>  <toid>  (38) 
nan

>  <type>  (38) 
pKi

>  <units>  (38) 
nan

>  <uo_units>  (38) 
UO_0000065

>  <upper_value>  (38) 
nan

>  <value>  (38) 
5.7

>  <SMILES>  (38) 
Cc1cccc(Cl)c1c2cccc3c(CCCOc4cccc5ccccc45)c([nH]c23)C(=O)NCCOCCOCCN

>  <NAME>  (38) 
CHEMBL2002682

>  <FILTER>  (38) 
OK

>  <MW>  (38) 
600.159

>  <LogP>  (38) 
6.68322

>  <HBD>  (38) 
3

>  <HBA>  (38) 
5

>  <TPSA>  (38) 
98.6

>  <Label>  (38) 
CAMK2B

$$$$
CHEMBL1973211
     RDKit          2D

 35 39  0  0  0  0  0  0  0  0999 V2000
    8.0406   12.1352    0.0000 C   0  0  0  0  0  0  0  0  0  0  0  0
    7.5771   10.7086    0.0000 C   0  0  0  0  0  0  0  0  0  0  0  0
    8.5808    9.5939    0.0000 C   0  0  0  0  0  0  0  0  0  0  0  0
    8.1173    8.1673    0.0000 C   0  0  0  0  0  0  0  0  0  0  0  0
    6.6501    7.8555    0.0000 C   0  0  0  0  0  0  0  0  0  0  0  0
    5.6464    8.9702    0.0000 C   0  0  0  0  0  0  0  0  0  0  0  0
    4.1791    8.6583    0.0000 N   0  0  0  0  0  0  0  0  0  0  0  0
    3.7156    7.2317    0.0000 C   0  0  0  0  0  0  0  0  0  0  0  0
    4.7193    6.1170    0.0000 O   0  0  0  0  0  0  0  0  0  0  0  0
    2.2484    6.9199    0.0000 N   0  0  0  0  0  0  0  0  0  0  0  0
    1.7849    5.4933    0.0000 C   0  0  0  0  0  0  0  0  0  0  0  0
    0.3177    5.1814    0.0000 C   0  0  0  0  0  0  0  0  0  0  0  0
   -0.1459    3.7548    0.0000 C   0  0  0  0  0  0  0  0  0  0  0  0
    0.8578    2.6401    0.0000 C   0  0  0  0  0  0  0  0  0  0  0  0
    2.3250    2.9520    0.0000 C   0  0  0  0  0  0  0  0  0  0  0  0
    2.7886    4.3786    0.0000 C   0  0  0  0  0  0  0  0  0  0  0  0
    0.3943    1.2135    0.0000 C   0  0  0  0  0  0  0  0  0  0  0  0
    1.2760    0.0000    0.0000 C   0  0  0  0  0  0  0  0  0  0  0  0
    0.3943   -1.2135    0.0000 S   0  0  0  0  0  0  0  0  0  0  0  0
   -1.0323   -0.7500    0.0000 C   0  0  0  0  0  0  0  0  0  0  0  0
   -2.3313   -1.5000    0.0000 C   0  0  0  0  0  0  0  0  0  0  0  0
   -3.6304   -0.7500    0.0000 C   0  0  0  0  0  0  0  0  0  0  0  0
   -3.6304    0.7500    0.0000 N   0  0  0  0  0  0  0  0  0  0  0  0
   -2.3313    1.5000    0.0000 C   0  0  0  0  0  0  0  0  0  0  0  0
   -2.3313    3.0000    0.0000 N   0  0  0  0  0  0  0  0  0  0  0  0
   -1.0323    0.7500    0.0000 C   0  0  0  0  0  0  0  0  0  0  0  0
   -2.3313   -3.0000    0.0000 C   0  0  0  0  0  0  0  0  0  0  0  0
   -2.3313   -4.5000    0.0000 C   0  0  0  0  0  0  0  0  0  0  0  0
   -2.3313   -6.0000    0.0000 C   0  0  0  0  0  0  0  0  0  0  0  0
   -3.6304   -6.7500    0.0000 N   0  0  0  0  0  0  0  0  0  0  0  0
   -3.7872   -8.2418    0.0000 C   0  0  0  0  0  0  0  0  0  0  0  0
   -5.2544   -8.5537    0.0000 C   0  0  0  0  0  0  0  0  0  0  0  0
   -6.0044   -7.2546    0.0000 C   0  0  0  0  0  0  0  0  0  0  0  0
   -5.0007   -6.1399    0.0000 C   0  0  0  0  0  0  0  0  0  0  0  0
    6.1099   10.3968    0.0000 C   0  0  0  0  0  0  0  0  0  0  0  0
  1  2  1  0
  2  3  2  0
  3  4  1  0
  4  5  2  0
  5  6  1  0
  6  7  1  0
  7  8  1  0
  8  9  2  0
  8 10  1  0
 10 11  1  0
 11 12  2  0
 12 13  1  0
 13 14  2  0
 14 15  1  0
 15 16  2  0
 14 17  1  0
 17 18  2  0
 18 19  1  0
 19 20  1  0
 20 21  2  0
 21 22  1  0
 22 23  2  0
 23 24  1  0
 24 25  1  0
 24 26  2  0
 21 27  1  0
 27 28  3  0
 28 29  1  0
 29 30  1  0
 30 31  1  0
 31 32  1  0
 32 33  1  0
 33 34  1  0
  6 35  2  0
 35  2  1  0
 16 11  1  0
 26 17  1  0
 26 20  1  0
 34 30  1  0
M  END
>  <activity_comment>  (39) 
active

>  <activity_id>  (39) 
9622401

>  <activity_properties>  (39) 
[]

>  <assay_chembl_id>  (39) 
CHEMBL1963787

>  <assay_description>  (39) 
PUBCHEM_BIOASSAY: Navigating the Kinome. (Class of assay: other) Panel member name: CAMK2B

>  <assay_type>  (39) 
F

>  <bao_endpoint>  (39) 
BAO_0000192

>  <bao_format>  (39) 
BAO_0000019

>  <bao_label>  (39) 
assay format

>  <canonical_smiles>  (39) 
Cc1cccc(NC(=O)Nc2ccc(cc2)c3csc4c(cnc(N)c34)C#CCN5CCCC5)c1

>  <data_validity_comment>  (39) 
nan

>  <data_validity_description>  (39) 
nan

>  <document_chembl_id>  (39) 
CHEMBL1201862

>  <document_journal>  (39) 
nan

>  <document_year>  (39) 
nan

>  <ligand_efficiency>  (39) 
nan

>  <molecule_pref_name>  (39) 
nan

>  <parent_molecule_chembl_id>  (39) 
CHEMBL1973211

>  <pchembl_value>  (39) 
5.1

>  <potential_duplicate>  (39) 
False

>  <qudt_units>  (39) 
http://www.openphacts.org/units/Nanomolar

>  <record_id>  (39) 
1584163

>  <relation>  (39) 
=

>  <src_id>  (39) 
7

>  <standard_flag>  (39) 
True

>  <standard_relation>  (39) 
=

>  <standard_text_value>  (39) 
nan

>  <standard_type>  (39) 
Ki

>  <standard_units>  (39) 
nM

>  <standard_upper_value>  (39) 
nan

>  <standard_value>  (39) 
7943.28

>  <target_chembl_id>  (39) 
CHEMBL4121

>  <target_organism>  (39) 
Homo sapiens

>  <target_pref_name>  (39) 
CaM kinase II beta

>  <target_tax_id>  (39) 
9606

>  <text_value>  (39) 
nan

>  <toid>  (39) 
nan

>  <type>  (39) 
pKi

>  <units>  (39) 
nan

>  <uo_units>  (39) 
UO_0000065

>  <upper_value>  (39) 
nan

>  <value>  (39) 
5.1

>  <SMILES>  (39) 
Cc1cccc(NC(=O)Nc2ccc(cc2)c3csc4c(cnc(N)c34)C#CCN5CCCC5)c1

>  <NAME>  (39) 
CHEMBL1973211

>  <FILTER>  (39) 
OK

>  <MW>  (39) 
481.625

>  <LogP>  (39) 
5.94522

>  <HBD>  (39) 
3

>  <HBA>  (39) 
5

>  <TPSA>  (39) 
83.28

>  <Label>  (39) 
CAMK2B

$$$$
CHEMBL1972125
     RDKit          2D

 35 39  0  0  0  0  0  0  0  0999 V2000
   -1.8373   -5.6601    0.0000 N   0  0  0  0  0  0  0  0  0  0  0  0
   -2.9520   -4.6564    0.0000 C   0  0  0  0  0  0  0  0  0  0  0  0
   -4.3786   -5.1199    0.0000 C   0  0  0  0  0  0  0  0  0  0  0  0
   -4.6904   -6.5871    0.0000 O   0  0  0  0  0  0  0  0  0  0  0  0
   -6.1170   -7.0506    0.0000 C   0  0  0  0  0  0  0  0  0  0  0  0
   -7.2317   -6.0469    0.0000 C   0  0  0  0  0  0  0  0  0  0  0  0
   -8.6583   -6.5105    0.0000 N   0  0  0  0  0  0  0  0  0  0  0  0
   -8.9702   -7.9777    0.0000 C   0  0  0  0  0  0  0  0  0  0  0  0
   -7.8555   -8.9814    0.0000 C   0  0  0  0  0  0  0  0  0  0  0  0
   -6.4289   -8.5179    0.0000 C   0  0  0  0  0  0  0  0  0  0  0  0
   -8.1673  -10.4486    0.0000 C   0  0  0  0  0  0  0  0  0  0  0  0
   -9.5939  -10.9121    0.0000 C   0  0  0  0  0  0  0  0  0  0  0  0
   -9.9058  -12.3794    0.0000 C   0  0  0  0  0  0  0  0  0  0  0  0
   -8.7911  -13.3831    0.0000 C   0  0  0  0  0  0  0  0  0  0  0  0
   -9.1029  -14.8503    0.0000 N   0  0  0  0  0  0  0  0  0  0  0  0
   -7.3645  -12.9195    0.0000 C   0  0  0  0  0  0  0  0  0  0  0  0
   -7.0526  -11.4523    0.0000 C   0  0  0  0  0  0  0  0  0  0  0  0
   -6.2498  -13.9232    0.0000 C   0  0  0  0  0  0  0  0  0  0  0  0
   -6.5616  -15.3904    0.0000 O   0  0  0  0  0  0  0  0  0  0  0  0
   -4.8232  -13.4597    0.0000 C   0  0  0  0  0  0  0  0  0  0  0  0
   -3.7085  -14.4634    0.0000 C   0  0  0  0  0  0  0  0  0  0  0  0
   -2.2819  -13.9999    0.0000 C   0  0  0  0  0  0  0  0  0  0  0  0
   -1.9700  -12.5326    0.0000 C   0  0  0  0  0  0  0  0  0  0  0  0
   -3.0847  -11.5290    0.0000 C   0  0  0  0  0  0  0  0  0  0  0  0
   -4.5113  -11.9925    0.0000 C   0  0  0  0  0  0  0  0  0  0  0  0
   -2.6401   -3.1891    0.0000 C   0  0  0  0  0  0  0  0  0  0  0  0
   -1.2135   -2.7256    0.0000 C   0  0  0  0  0  0  0  0  0  0  0  0
    0.0000   -3.6073    0.0000 C   0  0  0  0  0  0  0  0  0  0  0  0
    1.2135   -2.7256    0.0000 N   0  0  0  0  0  0  0  0  0  0  0  0
    0.7500   -1.2990    0.0000 C   0  0  0  0  0  0  0  0  0  0  0  0
    1.5000    0.0000    0.0000 C   0  0  0  0  0  0  0  0  0  0  0  0
    0.7500    1.2990    0.0000 C   0  0  0  0  0  0  0  0  0  0  0  0
   -0.7500    1.2990    0.0000 C   0  0  0  0  0  0  0  0  0  0  0  0
   -1.5000    0.0000    0.0000 C   0  0  0  0  0  0  0  0  0  0  0  0
   -0.7500   -1.2990    0.0000 C   0  0  0  0  0  0  0  0  0  0  0  0
  1  2  1  0
  2  3  1  0
  3  4  1  0
  4  5  1  0
  5  6  2  0
  6  7  1  0
  7  8  2  0
  8  9  1  0
  9 10  2  0
  9 11  1  0
 11 12  2  0
 12 13  1  0
 13 14  2  0
 14 15  1  0
 14 16  1  0
 16 17  2  0
 16 18  1  0
 18 19  2  0
 18 20  1  0
 20 21  2  0
 21 22  1  0
 22 23  2  0
 23 24  1  0
 24 25  2  0
  2 26  1  0
 26 27  1  0
 27 28  2  0
 28 29  1  0
 29 30  1  0
 30 31  2  0
 31 32  1  0
 32 33  2  0
 33 34  1  0
 34 35  2  0
 10  5  1  0
 17 11  1  0
 25 20  1  0
 35 27  1  0
 35 30  1  0
M  END
>  <activity_comment>  (40) 
active

>  <activity_id>  (40) 
9622404

>  <activity_properties>  (40) 
[]

>  <assay_chembl_id>  (40) 
CHEMBL1963787

>  <assay_description>  (40) 
PUBCHEM_BIOASSAY: Navigating the Kinome. (Class of assay: other) Panel member name: CAMK2B

>  <assay_type>  (40) 
F

>  <bao_endpoint>  (40) 
BAO_0000192

>  <bao_format>  (40) 
BAO_0000019

>  <bao_label>  (40) 
assay format

>  <canonical_smiles>  (40) 
NC(COc1cncc(c1)c2ccc(N)c(c2)C(=O)c3ccccc3)Cc4c[nH]c5ccccc45

>  <data_validity_comment>  (40) 
nan

>  <data_validity_description>  (40) 
nan

>  <document_chembl_id>  (40) 
CHEMBL1201862

>  <document_journal>  (40) 
nan

>  <document_year>  (40) 
nan

>  <ligand_efficiency>  (40) 
nan

>  <molecule_pref_name>  (40) 
nan

>  <parent_molecule_chembl_id>  (40) 
CHEMBL1972125

>  <pchembl_value>  (40) 
5.6

>  <potential_duplicate>  (40) 
False

>  <qudt_units>  (40) 
http://www.openphacts.org/units/Nanomolar

>  <record_id>  (40) 
1584355

>  <relation>  (40) 
=

>  <src_id>  (40) 
7

>  <standard_flag>  (40) 
True

>  <standard_relation>  (40) 
=

>  <standard_text_value>  (40) 
nan

>  <standard_type>  (40) 
Ki

>  <standard_units>  (40) 
nM

>  <standard_upper_value>  (40) 
nan

>  <standard_value>  (40) 
2511.89

>  <target_chembl_id>  (40) 
CHEMBL4121

>  <target_organism>  (40) 
Homo sapiens

>  <target_pref_name>  (40) 
CaM kinase II beta

>  <target_tax_id>  (40) 
9606

>  <text_value>  (40) 
nan

>  <toid>  (40) 
nan

>  <type>  (40) 
pKi

>  <units>  (40) 
nan

>  <uo_units>  (40) 
UO_0000065

>  <upper_value>  (40) 
nan

>  <value>  (40) 
5.6

>  <SMILES>  (40) 
NC(COc1cncc(c1)c2ccc(N)c(c2)C(=O)c3ccccc3)Cc4c[nH]c5ccccc45

>  <NAME>  (40) 
CHEMBL1972125

>  <FILTER>  (40) 
OK

>  <MW>  (40) 
462.553

>  <LogP>  (40) 
4.9919

>  <HBD>  (40) 
3

>  <HBA>  (40) 
5

>  <TPSA>  (40) 
107.02

>  <Label>  (40) 
CAMK2B

$$$$
CHEMBL1976134
     RDKit          2D

 18 21  0  0  0  0  0  0  0  0999 V2000
    1.2760    0.0000    0.0000 C   0  0  0  0  0  0  0  0  0  0  0  0
    0.3943    1.2135    0.0000 C   0  0  0  0  0  0  0  0  0  0  0  0
   -1.0323    0.7500    0.0000 C   0  0  0  0  0  0  0  0  0  0  0  0
   -2.3313    1.5000    0.0000 C   0  0  0  0  0  0  0  0  0  0  0  0
   -3.6304    0.7500    0.0000 C   0  0  0  0  0  0  0  0  0  0  0  0
   -3.6304   -0.7500    0.0000 C   0  0  0  0  0  0  0  0  0  0  0  0
   -2.3313   -1.5000    0.0000 N   0  0  0  0  0  0  0  0  0  0  0  0
   -1.0323   -0.7500    0.0000 C   0  0  0  0  0  0  0  0  0  0  0  0
    0.3943   -1.2135    0.0000 N   0  0  0  0  0  0  0  0  0  0  0  0
   -4.9294    1.5000    0.0000 C   0  0  0  0  0  0  0  0  0  0  0  0
   -4.9294    3.0000    0.0000 C   0  0  0  0  0  0  0  0  0  0  0  0
   -6.2284    3.7500    0.0000 C   0  0  0  0  0  0  0  0  0  0  0  0
   -7.5275    3.0000    0.0000 C   0  0  0  0  0  0  0  0  0  0  0  0
   -8.9541    3.4635    0.0000 C   0  0  0  0  0  0  0  0  0  0  0  0
   -9.8357    2.2500    0.0000 N   0  0  0  0  0  0  0  0  0  0  0  0
   -8.9541    1.0365    0.0000 N   0  0  0  0  0  0  0  0  0  0  0  0
   -7.5275    1.5000    0.0000 C   0  0  0  0  0  0  0  0  0  0  0  0
   -6.2284    0.7500    0.0000 C   0  0  0  0  0  0  0  0  0  0  0  0
  1  2  2  0
  2  3  1  0
  3  4  2  0
  4  5  1  0
  5  6  2  0
  6  7  1  0
  7  8  2  0
  8  9  1  0
  5 10  1  0
 10 11  2  0
 11 12  1  0
 12 13  2  0
 13 14  1  0
 14 15  2  0
 15 16  1  0
 16 17  1  0
 17 18  2  0
  9  1  1  0
  8  3  1  0
 18 10  1  0
 17 13  1  0
M  END
>  <activity_comment>  (41) 
active

>  <activity_id>  (41) 
9622407

>  <activity_properties>  (41) 
[]

>  <assay_chembl_id>  (41) 
CHEMBL1963787

>  <assay_description>  (41) 
PUBCHEM_BIOASSAY: Navigating the Kinome. (Class of assay: other) Panel member name: CAMK2B

>  <assay_type>  (41) 
F

>  <bao_endpoint>  (41) 
BAO_0000192

>  <bao_format>  (41) 
BAO_0000019

>  <bao_label>  (41) 
assay format

>  <canonical_smiles>  (41) 
c1cc2cc(cnc2[nH]1)c3ccc4cn[nH]c4c3

>  <data_validity_comment>  (41) 
nan

>  <data_validity_description>  (41) 
nan

>  <document_chembl_id>  (41) 
CHEMBL1201862

>  <document_journal>  (41) 
nan

>  <document_year>  (41) 
nan

>  <ligand_efficiency>  (41) 
nan

>  <molecule_pref_name>  (41) 
nan

>  <parent_molecule_chembl_id>  (41) 
CHEMBL1976134

>  <pchembl_value>  (41) 
5.4

>  <potential_duplicate>  (41) 
False

>  <qudt_units>  (41) 
http://www.openphacts.org/units/Nanomolar

>  <record_id>  (41) 
1585094

>  <relation>  (41) 
=

>  <src_id>  (41) 
7

>  <standard_flag>  (41) 
True

>  <standard_relation>  (41) 
=

>  <standard_text_value>  (41) 
nan

>  <standard_type>  (41) 
Ki

>  <standard_units>  (41) 
nM

>  <standard_upper_value>  (41) 
nan

>  <standard_value>  (41) 
3981.07

>  <target_chembl_id>  (41) 
CHEMBL4121

>  <target_organism>  (41) 
Homo sapiens

>  <target_pref_name>  (41) 
CaM kinase II beta

>  <target_tax_id>  (41) 
9606

>  <text_value>  (41) 
nan

>  <toid>  (41) 
nan

>  <type>  (41) 
pKi

>  <units>  (41) 
nan

>  <uo_units>  (41) 
UO_0000065

>  <upper_value>  (41) 
nan

>  <value>  (41) 
5.4

>  <SMILES>  (41) 
c1cc2cc(cnc2[nH]1)c3ccc4cn[nH]c4c3

>  <NAME>  (41) 
CHEMBL1976134

>  <FILTER>  (41) 
OK

>  <MW>  (41) 
234.262

>  <LogP>  (41) 
3.1062

>  <HBD>  (41) 
2

>  <HBA>  (41) 
2

>  <TPSA>  (41) 
57.36

>  <Label>  (41) 
CAMK2B

$$$$
CHEMBL1965131
     RDKit          2D

 24 26  0  0  0  0  0  0  0  0999 V2000
   -9.4612   -4.0396    0.0000 C   0  0  0  0  0  0  0  0  0  0  0  0
   -8.0346   -3.5760    0.0000 C   0  0  0  0  0  0  0  0  0  0  0  0
   -6.9199   -4.5797    0.0000 C   0  0  0  0  0  0  0  0  0  0  0  0
   -5.4933   -4.1162    0.0000 C   0  0  0  0  0  0  0  0  0  0  0  0
   -5.1814   -2.6490    0.0000 C   0  0  0  0  0  0  0  0  0  0  0  0
   -6.2961   -1.6453    0.0000 C   0  0  0  0  0  0  0  0  0  0  0  0
   -7.7227   -2.1088    0.0000 C   0  0  0  0  0  0  0  0  0  0  0  0
   -3.7548   -2.1855    0.0000 C   0  0  0  0  0  0  0  0  0  0  0  0
   -3.6241   -0.6912    0.0000 O   0  0  0  0  0  0  0  0  0  0  0  0
   -2.6401   -3.1891    0.0000 N   0  0  0  0  0  0  0  0  0  0  0  0
   -1.2135   -2.7256    0.0000 C   0  0  0  0  0  0  0  0  0  0  0  0
    0.0000   -3.6073    0.0000 C   0  0  0  0  0  0  0  0  0  0  0  0
    1.2135   -2.7256    0.0000 S   0  0  0  0  0  0  0  0  0  0  0  0
    0.7500   -1.2990    0.0000 C   0  0  0  0  0  0  0  0  0  0  0  0
    1.5000    0.0000    0.0000 C   0  0  0  0  0  0  0  0  0  0  0  0
    0.7500    1.2990    0.0000 C   0  0  0  0  0  0  0  0  0  0  0  0
   -0.7500    1.2990    0.0000 C   0  0  0  0  0  0  0  0  0  0  0  0
   -1.5000    2.5981    0.0000 Cl  0  0  0  0  0  0  0  0  0  0  0  0
   -1.5000    0.0000    0.0000 C   0  0  0  0  0  0  0  0  0  0  0  0
   -2.9888    0.1828    0.0000 Cl  0  0  0  0  0  0  0  0  0  0  0  0
   -0.7500   -1.2990    0.0000 C   0  0  0  0  0  0  0  0  0  0  0  0
    0.0000   -5.1073    0.0000 C   0  0  0  0  0  0  0  0  0  0  0  0
   -1.2990   -5.8573    0.0000 O   0  0  0  0  0  0  0  0  0  0  0  0
    1.2990   -5.8573    0.0000 N   0  0  0  0  0  0  0  0  0  0  0  0
  1  2  1  0
  2  3  2  0
  3  4  1  0
  4  5  2  0
  5  6  1  0
  6  7  2  0
  5  8  1  0
  8  9  2  0
  8 10  1  0
 10 11  1  0
 11 12  2  0
 12 13  1  0
 13 14  1  0
 14 15  2  0
 15 16  1  0
 16 17  2  0
 17 18  1  0
 17 19  1  0
 19 20  1  0
 19 21  2  0
 12 22  1  0
 22 23  2  0
 22 24  1  0
  7  2  1  0
 21 11  1  0
 21 14  1  0
M  END
>  <activity_comment>  (42) 
active

>  <activity_id>  (42) 
9622408

>  <activity_properties>  (42) 
[]

>  <assay_chembl_id>  (42) 
CHEMBL1963787

>  <assay_description>  (42) 
PUBCHEM_BIOASSAY: Navigating the Kinome. (Class of assay: other) Panel member name: CAMK2B

>  <assay_type>  (42) 
F

>  <bao_endpoint>  (42) 
BAO_0000192

>  <bao_format>  (42) 
BAO_0000019

>  <bao_label>  (42) 
assay format

>  <canonical_smiles>  (42) 
Cc1ccc(cc1)C(=O)Nc2c(sc3ccc(Cl)c(Cl)c23)C(=O)N

>  <data_validity_comment>  (42) 
nan

>  <data_validity_description>  (42) 
nan

>  <document_chembl_id>  (42) 
CHEMBL1201862

>  <document_journal>  (42) 
nan

>  <document_year>  (42) 
nan

>  <ligand_efficiency>  (42) 
nan

>  <molecule_pref_name>  (42) 
nan

>  <parent_molecule_chembl_id>  (42) 
CHEMBL1965131

>  <pchembl_value>  (42) 
6.0

>  <potential_duplicate>  (42) 
False

>  <qudt_units>  (42) 
http://www.openphacts.org/units/Nanomolar

>  <record_id>  (42) 
1584628

>  <relation>  (42) 
=

>  <src_id>  (42) 
7

>  <standard_flag>  (42) 
True

>  <standard_relation>  (42) 
=

>  <standard_text_value>  (42) 
nan

>  <standard_type>  (42) 
Ki

>  <standard_units>  (42) 
nM

>  <standard_upper_value>  (42) 
nan

>  <standard_value>  (42) 
1000.0

>  <target_chembl_id>  (42) 
CHEMBL4121

>  <target_organism>  (42) 
Homo sapiens

>  <target_pref_name>  (42) 
CaM kinase II beta

>  <target_tax_id>  (42) 
9606

>  <text_value>  (42) 
nan

>  <toid>  (42) 
nan

>  <type>  (42) 
pKi

>  <units>  (42) 
nan

>  <uo_units>  (42) 
UO_0000065

>  <upper_value>  (42) 
nan

>  <value>  (42) 
6.0

>  <SMILES>  (42) 
Cc1ccc(cc1)C(=O)Nc2c(sc3ccc(Cl)c(Cl)c23)C(=O)N

>  <NAME>  (42) 
CHEMBL1965131

>  <FILTER>  (42) 
OK

>  <MW>  (42) 
379.268

>  <LogP>  (42) 
4.86772

>  <HBD>  (42) 
2

>  <HBA>  (42) 
3

>  <TPSA>  (42) 
72.19

>  <Label>  (42) 
CAMK2B

$$$$
CHEMBL1972158
     RDKit          2D

 28 32  0  0  0  0  0  0  0  0999 V2000
   -2.6401   -3.1891    0.0000 N   0  0  0  0  0  0  0  0  0  0  0  0
   -1.2135   -2.7256    0.0000 C   0  0  0  0  0  0  0  0  0  0  0  0
   -0.0000   -3.6073    0.0000 N   0  0  0  0  0  0  0  0  0  0  0  0
    1.2135   -2.7256    0.0000 N   0  0  0  0  0  0  0  0  0  0  0  0
    0.7500   -1.2990    0.0000 C   0  0  0  0  0  0  0  0  0  0  0  0
    1.5000    0.0000    0.0000 C   0  0  0  0  0  0  0  0  0  0  0  0
    0.7500    1.2990    0.0000 C   0  0  0  0  0  0  0  0  0  0  0  0
   -0.7500    1.2990    0.0000 C   0  0  0  0  0  0  0  0  0  0  0  0
   -1.5000    0.0000    0.0000 C   0  0  0  0  0  0  0  0  0  0  0  0
   -0.7500   -1.2990    0.0000 C   0  0  0  0  0  0  0  0  0  0  0  0
   -1.5000    2.5981    0.0000 C   0  0  0  0  0  0  0  0  0  0  0  0
   -2.9918    2.7549    0.0000 N   0  0  0  0  0  0  0  0  0  0  0  0
   -3.3037    4.2221    0.0000 N   0  0  0  0  0  0  0  0  0  0  0  0
   -2.0046    4.9721    0.0000 N   0  0  0  0  0  0  0  0  0  0  0  0
   -1.8478    6.4639    0.0000 C   0  0  0  0  0  0  0  0  0  0  0  0
   -3.0613    7.3456    0.0000 C   0  0  0  0  0  0  0  0  0  0  0  0
   -4.4317    6.7354    0.0000 C   0  0  0  0  0  0  0  0  0  0  0  0
   -5.6452    7.6171    0.0000 C   0  0  0  0  0  0  0  0  0  0  0  0
   -5.4884    9.1089    0.0000 C   0  0  0  0  0  0  0  0  0  0  0  0
   -4.1181    9.7190    0.0000 C   0  0  0  0  0  0  0  0  0  0  0  0
   -2.9046    8.8373    0.0000 C   0  0  0  0  0  0  0  0  0  0  0  0
   -0.8899    3.9684    0.0000 C   0  0  0  0  0  0  0  0  0  0  0  0
    0.5773    4.2803    0.0000 C   0  0  0  0  0  0  0  0  0  0  0  0
    1.5810    3.1655    0.0000 C   0  0  0  0  0  0  0  0  0  0  0  0
    3.0482    3.4774    0.0000 C   0  0  0  0  0  0  0  0  0  0  0  0
    3.5118    4.9040    0.0000 C   0  0  0  0  0  0  0  0  0  0  0  0
    2.5081    6.0187    0.0000 C   0  0  0  0  0  0  0  0  0  0  0  0
    1.0409    5.7068    0.0000 C   0  0  0  0  0  0  0  0  0  0  0  0
  1  2  1  0
  2  3  2  0
  3  4  1  0
  4  5  1  0
  5  6  2  0
  6  7  1  0
  7  8  2  0
  8  9  1  0
  9 10  2  0
  8 11  1  0
 11 12  1  0
 12 13  2  0
 13 14  1  0
 14 15  1  0
 15 16  1  0
 16 17  2  0
 17 18  1  0
 18 19  2  0
 19 20  1  0
 20 21  2  0
 14 22  1  0
 22 23  1  0
 23 24  2  0
 24 25  1  0
 25 26  2  0
 26 27  1  0
 27 28  2  0
 10  2  1  0
 10  5  1  0
 22 11  2  0
 21 16  1  0
 28 23  1  0
M  END
>  <activity_comment>  (43) 
active

>  <activity_id>  (43) 
9622409

>  <activity_properties>  (43) 
[]

>  <assay_chembl_id>  (43) 
CHEMBL1963787

>  <assay_description>  (43) 
PUBCHEM_BIOASSAY: Navigating the Kinome. (Class of assay: other) Panel member name: CAMK2B

>  <assay_type>  (43) 
F

>  <bao_endpoint>  (43) 
BAO_0000192

>  <bao_format>  (43) 
BAO_0000019

>  <bao_label>  (43) 
assay format

>  <canonical_smiles>  (43) 
Nc1n[nH]c2ccc(cc12)c3nnn(Cc4ccccc4)c3c5ccccc5

>  <data_validity_comment>  (43) 
nan

>  <data_validity_description>  (43) 
nan

>  <document_chembl_id>  (43) 
CHEMBL1201862

>  <document_journal>  (43) 
nan

>  <document_year>  (43) 
nan

>  <ligand_efficiency>  (43) 
nan

>  <molecule_pref_name>  (43) 
nan

>  <parent_molecule_chembl_id>  (43) 
CHEMBL1972158

>  <pchembl_value>  (43) 
5.7

>  <potential_duplicate>  (43) 
False

>  <qudt_units>  (43) 
http://www.openphacts.org/units/Nanomolar

>  <record_id>  (43) 
1584346

>  <relation>  (43) 
=

>  <src_id>  (43) 
7

>  <standard_flag>  (43) 
True

>  <standard_relation>  (43) 
=

>  <standard_text_value>  (43) 
nan

>  <standard_type>  (43) 
Ki

>  <standard_units>  (43) 
nM

>  <standard_upper_value>  (43) 
nan

>  <standard_value>  (43) 
1995.26

>  <target_chembl_id>  (43) 
CHEMBL4121

>  <target_organism>  (43) 
Homo sapiens

>  <target_pref_name>  (43) 
CaM kinase II beta

>  <target_tax_id>  (43) 
9606

>  <text_value>  (43) 
nan

>  <toid>  (43) 
nan

>  <type>  (43) 
pKi

>  <units>  (43) 
nan

>  <uo_units>  (43) 
UO_0000065

>  <upper_value>  (43) 
nan

>  <value>  (43) 
5.7

>  <SMILES>  (43) 
Nc1n[nH]c2ccc(cc12)c3nnn(Cc4ccccc4)c3c5ccccc5

>  <NAME>  (43) 
CHEMBL1972158

>  <FILTER>  (43) 
OK

>  <MW>  (43) 
366.428

>  <LogP>  (43) 
4.1189

>  <HBD>  (43) 
2

>  <HBA>  (43) 
5

>  <TPSA>  (43) 
85.41

>  <Label>  (43) 
CAMK2B

$$$$
CHEMBL482767
     RDKit          2D

 28 31  0  0  0  0  0  0  0  0999 V2000
  -10.6670    6.5618    0.0000 O   0  0  0  0  0  0  0  0  0  0  0  0
  -11.5487    5.3483    0.0000 C   0  0  0  0  0  0  0  0  0  0  0  0
  -13.0405    5.5051    0.0000 N   0  0  0  0  0  0  0  0  0  0  0  0
  -13.6506    6.8754    0.0000 C   0  0  0  0  0  0  0  0  0  0  0  0
  -12.7689    8.0890    0.0000 C   0  0  0  0  0  0  0  0  0  0  0  0
  -13.3790    9.4593    0.0000 C   0  0  0  0  0  0  0  0  0  0  0  0
  -14.8708    9.6161    0.0000 C   0  0  0  0  0  0  0  0  0  0  0  0
  -15.7525    8.4025    0.0000 C   0  0  0  0  0  0  0  0  0  0  0  0
  -17.2443    8.5593    0.0000 Cl  0  0  0  0  0  0  0  0  0  0  0  0
  -15.1424    7.0322    0.0000 C   0  0  0  0  0  0  0  0  0  0  0  0
  -10.9386    3.9780    0.0000 N   0  0  0  0  0  0  0  0  0  0  0  0
   -9.4468    3.8212    0.0000 C   0  0  0  0  0  0  0  0  0  0  0  0
   -8.4431    4.9359    0.0000 N   0  0  0  0  0  0  0  0  0  0  0  0
   -7.0728    4.3258    0.0000 C   0  0  0  0  0  0  0  0  0  0  0  0
   -7.2296    2.8340    0.0000 C   0  0  0  0  0  0  0  0  0  0  0  0
   -6.1149    1.8303    0.0000 C   0  0  0  0  0  0  0  0  0  0  0  0
   -4.6883    2.2939    0.0000 C   0  0  0  0  0  0  0  0  0  0  0  0
   -3.5736    1.2902    0.0000 N   0  0  0  0  0  0  0  0  0  0  0  0
   -2.1470    1.7537    0.0000 C   0  0  0  0  0  0  0  0  0  0  0  0
   -1.8351    3.2209    0.0000 N   0  0  0  0  0  0  0  0  0  0  0  0
   -0.4086    3.6844    0.0000 C   0  0  0  0  0  0  0  0  0  0  0  0
    0.7062    2.6807    0.0000 N   0  0  0  0  0  0  0  0  0  0  0  0
    0.3943    1.2135    0.0000 C   0  0  0  0  0  0  0  0  0  0  0  0
    1.2760    0.0000    0.0000 C   0  0  0  0  0  0  0  0  0  0  0  0
    0.3943   -1.2135    0.0000 C   0  0  0  0  0  0  0  0  0  0  0  0
   -1.0323   -0.7500    0.0000 S   0  0  0  0  0  0  0  0  0  0  0  0
   -1.0323    0.7500    0.0000 C   0  0  0  0  0  0  0  0  0  0  0  0
   -8.6968    2.5222    0.0000 S   0  0  0  0  0  0  0  0  0  0  0  0
  1  2  1  0
  2  3  2  3
  3  4  1  0
  4  5  2  0
  5  6  1  0
  6  7  2  0
  7  8  1  0
  8  9  1  0
  8 10  2  0
  2 11  1  0
 11 12  1  0
 12 13  2  0
 13 14  1  0
 14 15  2  0
 15 16  1  0
 16 17  1  0
 17 18  1  0
 18 19  2  3
 19 20  1  0
 20 21  1  0
 21 22  2  0
 22 23  1  0
 23 24  1  0
 24 25  2  0
 25 26  1  0
 26 27  1  0
 15 28  1  0
 10  4  1  0
 28 12  1  0
 27 19  1  0
 27 23  2  0
M  END
>  <activity_comment>  (44) 
active

>  <activity_id>  (44) 
9622410

>  <activity_properties>  (44) 
[]

>  <assay_chembl_id>  (44) 
CHEMBL1963787

>  <assay_description>  (44) 
PUBCHEM_BIOASSAY: Navigating the Kinome. (Class of assay: other) Panel member name: CAMK2B

>  <assay_type>  (44) 
F

>  <bao_endpoint>  (44) 
BAO_0000192

>  <bao_format>  (44) 
BAO_0000019

>  <bao_label>  (44) 
assay format

>  <canonical_smiles>  (44) 
OC(=Nc1cccc(Cl)c1)Nc2ncc(CCN=C3NC=Nc4ccsc34)s2

>  <data_validity_comment>  (44) 
nan

>  <data_validity_description>  (44) 
nan

>  <document_chembl_id>  (44) 
CHEMBL1201862

>  <document_journal>  (44) 
nan

>  <document_year>  (44) 
nan

>  <ligand_efficiency>  (44) 
nan

>  <molecule_pref_name>  (44) 
SNS-314

>  <parent_molecule_chembl_id>  (44) 
CHEMBL482767

>  <pchembl_value>  (44) 
5.9

>  <potential_duplicate>  (44) 
False

>  <qudt_units>  (44) 
http://www.openphacts.org/units/Nanomolar

>  <record_id>  (44) 
1585468

>  <relation>  (44) 
=

>  <src_id>  (44) 
7

>  <standard_flag>  (44) 
True

>  <standard_relation>  (44) 
=

>  <standard_text_value>  (44) 
nan

>  <standard_type>  (44) 
Ki

>  <standard_units>  (44) 
nM

>  <standard_upper_value>  (44) 
nan

>  <standard_value>  (44) 
1258.93

>  <target_chembl_id>  (44) 
CHEMBL4121

>  <target_organism>  (44) 
Homo sapiens

>  <target_pref_name>  (44) 
CaM kinase II beta

>  <target_tax_id>  (44) 
9606

>  <text_value>  (44) 
nan

>  <toid>  (44) 
nan

>  <type>  (44) 
pKi

>  <units>  (44) 
nan

>  <uo_units>  (44) 
UO_0000065

>  <upper_value>  (44) 
nan

>  <value>  (44) 
5.9

>  <SMILES>  (44) 
OC(=Nc1cccc(Cl)c1)Nc2ncc(CCN=C3NC=Nc4ccsc34)s2

>  <NAME>  (44) 
CHEMBL482767

>  <FILTER>  (44) 
OK

>  <MW>  (44) 
430.946

>  <LogP>  (44) 
4.5353

>  <HBD>  (44) 
3

>  <HBA>  (44) 
6

>  <TPSA>  (44) 
98.55

>  <Label>  (44) 
CAMK2B

$$$$
CHEMBL1993424
     RDKit          2D

 27 30  0  0  0  0  0  0  0  0999 V2000
    2.2500   -9.0933    0.0000 N   0  0  0  0  0  0  0  0  0  0  0  0
    1.5000   -7.7942    0.0000 S   0  0  0  0  0  0  0  0  0  0  0  0
    0.2010   -8.5442    0.0000 O   0  0  0  0  0  0  0  0  0  0  0  0
    2.7990   -7.0442    0.0000 O   0  0  0  0  0  0  0  0  0  0  0  0
    0.7500   -6.4952    0.0000 C   0  0  0  0  0  0  0  0  0  0  0  0
   -0.7500   -6.4952    0.0000 C   0  0  0  0  0  0  0  0  0  0  0  0
   -1.5000   -5.1962    0.0000 C   0  0  0  0  0  0  0  0  0  0  0  0
   -0.7500   -3.8971    0.0000 C   0  0  0  0  0  0  0  0  0  0  0  0
    0.7500   -3.8971    0.0000 C   0  0  0  0  0  0  0  0  0  0  0  0
    1.5000   -2.5981    0.0000 N   0  0  0  0  0  0  0  0  0  0  0  0
    0.7500   -1.2990    0.0000 C   0  0  0  0  0  0  0  0  0  0  0  0
    1.5000    0.0000    0.0000 N   0  0  0  0  0  0  0  0  0  0  0  0
    0.7500    1.2990    0.0000 C   0  0  0  0  0  0  0  0  0  0  0  0
   -0.7500    1.2990    0.0000 C   0  0  0  0  0  0  0  0  0  0  0  0
   -1.7537    2.4138    0.0000 C   0  0  0  0  0  0  0  0  0  0  0  0
   -3.1240    1.8037    0.0000 C   0  0  0  0  0  0  0  0  0  0  0  0
   -2.9672    0.3119    0.0000 N   0  0  0  0  0  0  0  0  0  0  0  0
   -4.0819   -0.6918    0.0000 C   0  0  0  0  0  0  0  0  0  0  0  0
   -5.5085   -0.2283    0.0000 C   0  0  0  0  0  0  0  0  0  0  0  0
   -5.8204    1.2389    0.0000 C   0  0  0  0  0  0  0  0  0  0  0  0
   -7.2470    1.7024    0.0000 C   0  0  0  0  0  0  0  0  0  0  0  0
   -8.3617    0.6987    0.0000 C   0  0  0  0  0  0  0  0  0  0  0  0
   -8.0498   -0.7685    0.0000 C   0  0  0  0  0  0  0  0  0  0  0  0
   -6.6232   -1.2320    0.0000 C   0  0  0  0  0  0  0  0  0  0  0  0
   -1.5000    0.0000    0.0000 C   0  0  0  0  0  0  0  0  0  0  0  0
   -0.7500   -1.2990    0.0000 N   0  0  0  0  0  0  0  0  0  0  0  0
    1.5000   -5.1962    0.0000 C   0  0  0  0  0  0  0  0  0  0  0  0
  1  2  1  0
  2  3  2  0
  2  4  2  0
  2  5  1  0
  5  6  2  0
  6  7  1  0
  7  8  2  0
  8  9  1  0
  9 10  1  0
 10 11  1  0
 11 12  2  0
 12 13  1  0
 13 14  2  0
 14 15  1  0
 15 16  2  0
 16 17  1  0
 17 18  1  0
 18 19  1  0
 19 20  2  0
 20 21  1  0
 21 22  2  0
 22 23  1  0
 23 24  2  0
 17 25  1  0
 25 26  2  0
  9 27  2  0
 27  5  1  0
 26 11  1  0
 25 14  1  0
 24 19  1  0
M  END
>  <activity_comment>  (45) 
active

>  <activity_id>  (45) 
9622419

>  <activity_properties>  (45) 
[]

>  <assay_chembl_id>  (45) 
CHEMBL1963787

>  <assay_description>  (45) 
PUBCHEM_BIOASSAY: Navigating the Kinome. (Class of assay: other) Panel member name: CAMK2B

>  <assay_type>  (45) 
F

>  <bao_endpoint>  (45) 
BAO_0000192

>  <bao_format>  (45) 
BAO_0000019

>  <bao_label>  (45) 
assay format

>  <canonical_smiles>  (45) 
NS(=O)(=O)c1cccc(Nc2ncc3ccn(Cc4ccccc4)c3n2)c1

>  <data_validity_comment>  (45) 
nan

>  <data_validity_description>  (45) 
nan

>  <document_chembl_id>  (45) 
CHEMBL1201862

>  <document_journal>  (45) 
nan

>  <document_year>  (45) 
nan

>  <ligand_efficiency>  (45) 
nan

>  <molecule_pref_name>  (45) 
nan

>  <parent_molecule_chembl_id>  (45) 
CHEMBL1993424

>  <pchembl_value>  (45) 
5.8

>  <potential_duplicate>  (45) 
False

>  <qudt_units>  (45) 
http://www.openphacts.org/units/Nanomolar

>  <record_id>  (45) 
1585133

>  <relation>  (45) 
=

>  <src_id>  (45) 
7

>  <standard_flag>  (45) 
True

>  <standard_relation>  (45) 
=

>  <standard_text_value>  (45) 
nan

>  <standard_type>  (45) 
Ki

>  <standard_units>  (45) 
nM

>  <standard_upper_value>  (45) 
nan

>  <standard_value>  (45) 
1584.89

>  <target_chembl_id>  (45) 
CHEMBL4121

>  <target_organism>  (45) 
Homo sapiens

>  <target_pref_name>  (45) 
CaM kinase II beta

>  <target_tax_id>  (45) 
9606

>  <text_value>  (45) 
nan

>  <toid>  (45) 
nan

>  <type>  (45) 
pKi

>  <units>  (45) 
nan

>  <uo_units>  (45) 
UO_0000065

>  <upper_value>  (45) 
nan

>  <value>  (45) 
5.8

>  <SMILES>  (45) 
NS(=O)(=O)c1cccc(Nc2ncc3ccn(Cc4ccccc4)c3n2)c1

>  <NAME>  (45) 
CHEMBL1993424

>  <FILTER>  (45) 
OK

>  <MW>  (45) 
379.445

>  <LogP>  (45) 
2.8706

>  <HBD>  (45) 
2

>  <HBA>  (45) 
6

>  <TPSA>  (45) 
102.9

>  <Label>  (45) 
CAMK2B

$$$$
CHEMBL1971943
     RDKit          2D

 28 31  0  0  0  0  0  0  0  0999 V2000
   -2.6401   -3.1891    0.0000 C   0  0  0  0  0  0  0  0  0  0  0  0
   -1.2135   -2.7256    0.0000 C   0  0  0  0  0  0  0  0  0  0  0  0
   -0.0000   -3.6073    0.0000 C   0  0  0  0  0  0  0  0  0  0  0  0
    1.2135   -2.7256    0.0000 N   0  0  0  0  0  0  0  0  0  0  0  0
    0.7500   -1.2990    0.0000 C   0  0  0  0  0  0  0  0  0  0  0  0
    1.5000    0.0000    0.0000 N   0  0  0  0  0  0  0  0  0  0  0  0
    0.7500    1.2990    0.0000 C   0  0  0  0  0  0  0  0  0  0  0  0
   -0.7500    1.2990    0.0000 C   0  0  0  0  0  0  0  0  0  0  0  0
   -1.5000    0.0000    0.0000 C   0  0  0  0  0  0  0  0  0  0  0  0
   -3.0000    0.0000    0.0000 O   0  0  0  0  0  0  0  0  0  0  0  0
   -3.7500    1.2990    0.0000 C   0  0  0  0  0  0  0  0  0  0  0  0
   -3.0000    2.5981    0.0000 C   0  0  0  0  0  0  0  0  0  0  0  0
   -1.5000    2.5981    0.0000 F   0  0  0  0  0  0  0  0  0  0  0  0
   -3.7500    3.8971    0.0000 C   0  0  0  0  0  0  0  0  0  0  0  0
   -5.2500    3.8971    0.0000 C   0  0  0  0  0  0  0  0  0  0  0  0
   -6.0000    5.1962    0.0000 N   0  0  0  0  0  0  0  0  0  0  0  0
   -5.2500    6.4952    0.0000 C   0  0  0  0  0  0  0  0  0  0  0  0
   -3.7500    6.4952    0.0000 C   0  0  0  0  0  0  0  0  0  0  0  0
   -3.0000    7.7942    0.0000 C   0  0  0  0  0  0  0  0  0  0  0  0
   -1.5000    7.7942    0.0000 Cl  0  0  0  0  0  0  0  0  0  0  0  0
   -3.7500    9.0933    0.0000 N   0  0  0  0  0  0  0  0  0  0  0  0
   -5.2500    9.0933    0.0000 C   0  0  0  0  0  0  0  0  0  0  0  0
   -6.0000   10.3923    0.0000 N   0  0  0  0  0  0  0  0  0  0  0  0
   -6.0000    7.7942    0.0000 N   0  0  0  0  0  0  0  0  0  0  0  0
   -6.0000    2.5981    0.0000 C   0  0  0  0  0  0  0  0  0  0  0  0
   -5.2500    1.2990    0.0000 C   0  0  0  0  0  0  0  0  0  0  0  0
   -6.0000    0.0000    0.0000 F   0  0  0  0  0  0  0  0  0  0  0  0
   -0.7500   -1.2990    0.0000 C   0  0  0  0  0  0  0  0  0  0  0  0
  1  2  1  0
  2  3  2  0
  3  4  1  0
  4  5  1  0
  5  6  2  0
  6  7  1  0
  7  8  2  0
  8  9  1  0
  9 10  1  0
 10 11  1  0
 11 12  2  0
 12 13  1  0
 12 14  1  0
 14 15  2  0
 15 16  1  0
 16 17  1  0
 17 18  2  0
 18 19  1  0
 19 20  1  0
 19 21  2  0
 21 22  1  0
 22 23  1  0
 22 24  2  0
 15 25  1  0
 25 26  2  0
 26 27  1  0
  9 28  2  0
 28  2  1  0
 28  5  1  0
 26 11  1  0
 24 17  1  0
M  END
>  <activity_comment>  (46) 
active

>  <activity_id>  (46) 
9622425

>  <activity_properties>  (46) 
[]

>  <assay_chembl_id>  (46) 
CHEMBL1963787

>  <assay_description>  (46) 
PUBCHEM_BIOASSAY: Navigating the Kinome. (Class of assay: other) Panel member name: CAMK2B

>  <assay_type>  (46) 
F

>  <bao_endpoint>  (46) 
BAO_0000192

>  <bao_format>  (46) 
BAO_0000019

>  <bao_label>  (46) 
assay format

>  <canonical_smiles>  (46) 
Cc1c[nH]c2nccc(Oc3c(F)cc(Nc4cc(Cl)nc(N)n4)cc3F)c12

>  <data_validity_comment>  (46) 
nan

>  <data_validity_description>  (46) 
nan

>  <document_chembl_id>  (46) 
CHEMBL1201862

>  <document_journal>  (46) 
nan

>  <document_year>  (46) 
nan

>  <ligand_efficiency>  (46) 
nan

>  <molecule_pref_name>  (46) 
nan

>  <parent_molecule_chembl_id>  (46) 
CHEMBL1971943

>  <pchembl_value>  (46) 
5.5

>  <potential_duplicate>  (46) 
False

>  <qudt_units>  (46) 
http://www.openphacts.org/units/Nanomolar

>  <record_id>  (46) 
1585531

>  <relation>  (46) 
=

>  <src_id>  (46) 
7

>  <standard_flag>  (46) 
True

>  <standard_relation>  (46) 
=

>  <standard_text_value>  (46) 
nan

>  <standard_type>  (46) 
Ki

>  <standard_units>  (46) 
nM

>  <standard_upper_value>  (46) 
nan

>  <standard_value>  (46) 
3162.28

>  <target_chembl_id>  (46) 
CHEMBL4121

>  <target_organism>  (46) 
Homo sapiens

>  <target_pref_name>  (46) 
CaM kinase II beta

>  <target_tax_id>  (46) 
9606

>  <text_value>  (46) 
nan

>  <toid>  (46) 
nan

>  <type>  (46) 
pKi

>  <units>  (46) 
nan

>  <uo_units>  (46) 
UO_0000065

>  <upper_value>  (46) 
nan

>  <value>  (46) 
5.5

>  <SMILES>  (46) 
Cc1c[nH]c2nccc(Oc3c(F)cc(Nc4cc(Cl)nc(N)n4)cc3F)c12

>  <NAME>  (46) 
CHEMBL1971943

>  <FILTER>  (46) 
OK

>  <MW>  (46) 
402.792

>  <LogP>  (46) 
4.71102

>  <HBD>  (46) 
3

>  <HBA>  (46) 
6

>  <TPSA>  (46) 
101.74

>  <Label>  (46) 
CAMK2B

$$$$
CHEMBL1988537
     RDKit          2D

 25 28  0  0  0  0  0  0  0  0999 V2000
    5.2500   -9.0933    0.0000 C   0  0  0  0  0  0  0  0  0  0  0  0
    6.0000   -7.7942    0.0000 O   0  0  0  0  0  0  0  0  0  0  0  0
    5.2500   -6.4952    0.0000 C   0  0  0  0  0  0  0  0  0  0  0  0
    3.7500   -6.4952    0.0000 C   0  0  0  0  0  0  0  0  0  0  0  0
    3.0000   -5.1962    0.0000 C   0  0  0  0  0  0  0  0  0  0  0  0
    3.7500   -3.8971    0.0000 C   0  0  0  0  0  0  0  0  0  0  0  0
    5.2500   -3.8971    0.0000 C   0  0  0  0  0  0  0  0  0  0  0  0
    6.0000   -5.1962    0.0000 C   0  0  0  0  0  0  0  0  0  0  0  0
    3.0000   -2.5981    0.0000 C   0  0  0  0  0  0  0  0  0  0  0  0
    3.7500   -1.2990    0.0000 O   0  0  0  0  0  0  0  0  0  0  0  0
    1.5000   -2.5981    0.0000 N   0  0  0  0  0  0  0  0  0  0  0  0
    0.7500   -1.2990    0.0000 C   0  0  0  0  0  0  0  0  0  0  0  0
    1.5000    0.0000    0.0000 C   0  0  0  0  0  0  0  0  0  0  0  0
    0.7500    1.2990    0.0000 C   0  0  0  0  0  0  0  0  0  0  0  0
   -0.7500    1.2990    0.0000 C   0  0  0  0  0  0  0  0  0  0  0  0
   -1.5000    0.0000    0.0000 C   0  0  0  0  0  0  0  0  0  0  0  0
   -0.7500   -1.2990    0.0000 C   0  0  0  0  0  0  0  0  0  0  0  0
   -1.5000   -2.5981    0.0000 S   0  0  0  0  0  0  0  0  0  0  0  0
   -0.7500   -3.8971    0.0000 C   0  0  0  0  0  0  0  0  0  0  0  0
   -1.5000   -5.1962    0.0000 C   0  0  0  0  0  0  0  0  0  0  0  0
   -3.0000   -5.1962    0.0000 Cl  0  0  0  0  0  0  0  0  0  0  0  0
   -0.7500   -6.4952    0.0000 C   0  0  0  0  0  0  0  0  0  0  0  0
    0.7500   -6.4952    0.0000 N   0  0  0  0  0  0  0  0  0  0  0  0
    1.5000   -5.1962    0.0000 C   0  0  0  0  0  0  0  0  0  0  0  0
    0.7500   -3.8971    0.0000 C   0  0  0  0  0  0  0  0  0  0  0  0
  1  2  1  0
  2  3  1  0
  3  4  2  0
  4  5  1  0
  5  6  2  0
  6  7  1  0
  7  8  2  0
  6  9  1  0
  9 10  2  0
  9 11  1  0
 11 12  1  0
 12 13  2  0
 13 14  1  0
 14 15  2  0
 15 16  1  0
 16 17  2  0
 17 18  1  0
 18 19  1  0
 19 20  2  0
 20 21  1  0
 20 22  1  0
 22 23  2  0
 23 24  1  0
 24 25  2  0
  8  3  1  0
 25 11  1  0
 17 12  1  0
 25 19  1  0
M  END
>  <activity_comment>  (47) 
active

>  <activity_id>  (47) 
9622427

>  <activity_properties>  (47) 
[]

>  <assay_chembl_id>  (47) 
CHEMBL1963787

>  <assay_description>  (47) 
PUBCHEM_BIOASSAY: Navigating the Kinome. (Class of assay: other) Panel member name: CAMK2B

>  <assay_type>  (47) 
F

>  <bao_endpoint>  (47) 
BAO_0000192

>  <bao_format>  (47) 
BAO_0000019

>  <bao_label>  (47) 
assay format

>  <canonical_smiles>  (47) 
COc1ccc(cc1)C(=O)N2c3ccccc3Sc4c(Cl)cncc24

>  <data_validity_comment>  (47) 
nan

>  <data_validity_description>  (47) 
nan

>  <document_chembl_id>  (47) 
CHEMBL1201862

>  <document_journal>  (47) 
nan

>  <document_year>  (47) 
nan

>  <ligand_efficiency>  (47) 
nan

>  <molecule_pref_name>  (47) 
nan

>  <parent_molecule_chembl_id>  (47) 
CHEMBL1988537

>  <pchembl_value>  (47) 
6.7

>  <potential_duplicate>  (47) 
False

>  <qudt_units>  (47) 
http://www.openphacts.org/units/Nanomolar

>  <record_id>  (47) 
1585472

>  <relation>  (47) 
=

>  <src_id>  (47) 
7

>  <standard_flag>  (47) 
True

>  <standard_relation>  (47) 
=

>  <standard_text_value>  (47) 
nan

>  <standard_type>  (47) 
Ki

>  <standard_units>  (47) 
nM

>  <standard_upper_value>  (47) 
nan

>  <standard_value>  (47) 
199.53

>  <target_chembl_id>  (47) 
CHEMBL4121

>  <target_organism>  (47) 
Homo sapiens

>  <target_pref_name>  (47) 
CaM kinase II beta

>  <target_tax_id>  (47) 
9606

>  <text_value>  (47) 
nan

>  <toid>  (47) 
nan

>  <type>  (47) 
pKi

>  <units>  (47) 
nan

>  <uo_units>  (47) 
UO_0000065

>  <upper_value>  (47) 
nan

>  <value>  (47) 
6.7

>  <SMILES>  (47) 
COc1ccc(cc1)C(=O)N2c3ccccc3Sc4c(Cl)cncc24

>  <NAME>  (47) 
CHEMBL1988537

>  <FILTER>  (47) 
OK

>  <MW>  (47) 
368.845

>  <LogP>  (47) 
5.1867

>  <HBD>  (47) 
0

>  <HBA>  (47) 
4

>  <TPSA>  (47) 
42.43

>  <Label>  (47) 
CAMK2B

$$$$
CHEMBL2003405
     RDKit          2D

 28 30  0  0  0  0  0  0  0  0999 V2000
    6.0000   -2.5981    0.0000 C   0  0  0  0  0  0  0  0  0  0  0  0
    5.2500   -1.2990    0.0000 C   0  0  0  0  0  0  0  0  0  0  0  0
    3.7500   -1.2990    0.0000 C   0  0  0  0  0  0  0  0  0  0  0  0
    3.0000    0.0000    0.0000 C   0  0  0  0  0  0  0  0  0  0  0  0
    3.7500    1.2990    0.0000 O   0  0  0  0  0  0  0  0  0  0  0  0
    1.5000    0.0000    0.0000 C   0  0  0  0  0  0  0  0  0  0  0  0
    0.7500   -1.2990    0.0000 C   0  0  0  0  0  0  0  0  0  0  0  0
   -0.7500   -1.2990    0.0000 C   0  0  0  0  0  0  0  0  0  0  0  0
   -1.5000    0.0000    0.0000 C   0  0  0  0  0  0  0  0  0  0  0  0
   -3.0000    0.0000    0.0000 N   0  0  0  0  0  0  0  0  0  0  0  0
   -3.7500    1.2990    0.0000 C   0  0  0  0  0  0  0  0  0  0  0  0
   -5.2500    1.2990    0.0000 C   0  0  0  0  0  0  0  0  0  0  0  0
   -6.1317    0.0855    0.0000 C   0  0  0  0  0  0  0  0  0  0  0  0
   -7.5583    0.5490    0.0000 N   0  0  0  0  0  0  0  0  0  0  0  0
   -7.5583    2.0490    0.0000 N   0  0  0  0  0  0  0  0  0  0  0  0
   -6.1317    2.5126    0.0000 C   0  0  0  0  0  0  0  0  0  0  0  0
   -5.6682    3.9391    0.0000 C   0  0  0  0  0  0  0  0  0  0  0  0
   -4.2009    4.2510    0.0000 C   0  0  0  0  0  0  0  0  0  0  0  0
   -3.7374    5.6776    0.0000 C   0  0  0  0  0  0  0  0  0  0  0  0
   -4.7411    6.7923    0.0000 C   0  0  0  0  0  0  0  0  0  0  0  0
   -6.2083    6.4805    0.0000 C   0  0  0  0  0  0  0  0  0  0  0  0
   -6.6718    5.0539    0.0000 C   0  0  0  0  0  0  0  0  0  0  0  0
   -4.2776    8.2189    0.0000 C   0  0  0  0  0  0  0  0  0  0  0  0
   -3.8141    9.6455    0.0000 F   0  0  0  0  0  0  0  0  0  0  0  0
   -2.8510    7.7554    0.0000 F   0  0  0  0  0  0  0  0  0  0  0  0
   -5.7042    8.6824    0.0000 F   0  0  0  0  0  0  0  0  0  0  0  0
   -0.7500    1.2990    0.0000 C   0  0  0  0  0  0  0  0  0  0  0  0
    0.7500    1.2990    0.0000 C   0  0  0  0  0  0  0  0  0  0  0  0
  1  2  1  0
  2  3  1  0
  3  4  1  0
  4  5  2  0
  4  6  1  0
  6  7  2  0
  7  8  1  0
  8  9  2  0
  9 10  1  0
 10 11  1  0
 11 12  1  0
 12 13  2  0
 13 14  1  0
 14 15  1  0
 15 16  2  0
 16 17  1  0
 17 18  2  0
 18 19  1  0
 19 20  2  0
 20 21  1  0
 21 22  2  0
 20 23  1  0
 23 24  1  0
 23 25  1  0
 23 26  1  0
  9 27  1  0
 27 28  2  0
 28  6  1  0
 16 12  1  0
 22 17  1  0
M  END
>  <activity_comment>  (48) 
active

>  <activity_id>  (48) 
9622431

>  <activity_properties>  (48) 
[]

>  <assay_chembl_id>  (48) 
CHEMBL1963787

>  <assay_description>  (48) 
PUBCHEM_BIOASSAY: Navigating the Kinome. (Class of assay: other) Panel member name: CAMK2B

>  <assay_type>  (48) 
F

>  <bao_endpoint>  (48) 
BAO_0000192

>  <bao_format>  (48) 
BAO_0000019

>  <bao_label>  (48) 
assay format

>  <canonical_smiles>  (48) 
CCCC(=O)c1ccc(NCc2c[nH]nc2c3ccc(cc3)C(F)(F)F)cc1

>  <data_validity_comment>  (48) 
nan

>  <data_validity_description>  (48) 
nan

>  <document_chembl_id>  (48) 
CHEMBL1201862

>  <document_journal>  (48) 
nan

>  <document_year>  (48) 
nan

>  <ligand_efficiency>  (48) 
nan

>  <molecule_pref_name>  (48) 
nan

>  <parent_molecule_chembl_id>  (48) 
CHEMBL2003405

>  <pchembl_value>  (48) 
5.9

>  <potential_duplicate>  (48) 
False

>  <qudt_units>  (48) 
http://www.openphacts.org/units/Nanomolar

>  <record_id>  (48) 
1585330

>  <relation>  (48) 
=

>  <src_id>  (48) 
7

>  <standard_flag>  (48) 
True

>  <standard_relation>  (48) 
=

>  <standard_text_value>  (48) 
nan

>  <standard_type>  (48) 
Ki

>  <standard_units>  (48) 
nM

>  <standard_upper_value>  (48) 
nan

>  <standard_value>  (48) 
1258.93

>  <target_chembl_id>  (48) 
CHEMBL4121

>  <target_organism>  (48) 
Homo sapiens

>  <target_pref_name>  (48) 
CaM kinase II beta

>  <target_tax_id>  (48) 
9606

>  <text_value>  (48) 
nan

>  <toid>  (48) 
nan

>  <type>  (48) 
pKi

>  <units>  (48) 
nan

>  <uo_units>  (48) 
UO_0000065

>  <upper_value>  (48) 
nan

>  <value>  (48) 
5.9

>  <SMILES>  (48) 
CCCC(=O)c1ccc(NCc2c[nH]nc2c3ccc(cc3)C(F)(F)F)cc1

>  <NAME>  (48) 
CHEMBL2003405

>  <FILTER>  (48) 
OK

>  <MW>  (48) 
387.405

>  <LogP>  (48) 
5.6904

>  <HBD>  (48) 
2

>  <HBA>  (48) 
3

>  <TPSA>  (48) 
57.78

>  <Label>  (48) 
CAMK2B

$$$$
CHEMBL1336
     RDKit          2D

 32 34  0  0  0  0  0  0  0  0999 V2000
    5.2500   -1.2990    0.0000 C   0  0  0  0  0  0  0  0  0  0  0  0
    3.7500   -1.2990    0.0000 N   0  0  0  0  0  0  0  0  0  0  0  0
    3.0000    0.0000    0.0000 C   0  0  0  0  0  0  0  0  0  0  0  0
    3.7500    1.2990    0.0000 O   0  0  0  0  0  0  0  0  0  0  0  0
    1.5000    0.0000    0.0000 C   0  0  0  0  0  0  0  0  0  0  0  0
    0.7500   -1.2990    0.0000 C   0  0  0  0  0  0  0  0  0  0  0  0
   -0.7500   -1.2990    0.0000 C   0  0  0  0  0  0  0  0  0  0  0  0
   -1.5000   -2.5981    0.0000 O   0  0  0  0  0  0  0  0  0  0  0  0
   -3.0000   -2.5981    0.0000 C   0  0  0  0  0  0  0  0  0  0  0  0
   -3.7500   -1.2990    0.0000 C   0  0  0  0  0  0  0  0  0  0  0  0
   -5.2500   -1.2990    0.0000 C   0  0  0  0  0  0  0  0  0  0  0  0
   -6.0000   -2.5981    0.0000 C   0  0  0  0  0  0  0  0  0  0  0  0
   -7.5000   -2.5981    0.0000 N   0  0  0  0  0  0  0  0  0  0  0  0
   -8.2500   -1.2990    0.0000 C   0  0  0  0  0  0  0  0  0  0  0  0
   -7.5000    0.0000    0.0000 O   0  0  0  0  0  0  0  0  0  0  0  0
   -9.7500   -1.2990    0.0000 N   0  0  0  0  0  0  0  0  0  0  0  0
  -10.5000    0.0000    0.0000 C   0  0  0  0  0  0  0  0  0  0  0  0
   -9.7500    1.2990    0.0000 C   0  0  0  0  0  0  0  0  0  0  0  0
  -10.5000    2.5981    0.0000 C   0  0  0  0  0  0  0  0  0  0  0  0
  -12.0000    2.5981    0.0000 C   0  0  0  0  0  0  0  0  0  0  0  0
  -12.7500    3.8971    0.0000 Cl  0  0  0  0  0  0  0  0  0  0  0  0
  -12.7500    1.2990    0.0000 C   0  0  0  0  0  0  0  0  0  0  0  0
  -12.0000    0.0000    0.0000 C   0  0  0  0  0  0  0  0  0  0  0  0
  -14.2500    1.2990    0.0000 C   0  0  0  0  0  0  0  0  0  0  0  0
  -15.7500    1.2990    0.0000 F   0  0  0  0  0  0  0  0  0  0  0  0
  -14.2500   -0.2010    0.0000 F   0  0  0  0  0  0  0  0  0  0  0  0
  -14.2500    2.7990    0.0000 F   0  0  0  0  0  0  0  0  0  0  0  0
   -5.2500   -3.8971    0.0000 C   0  0  0  0  0  0  0  0  0  0  0  0
   -3.7500   -3.8971    0.0000 C   0  0  0  0  0  0  0  0  0  0  0  0
   -1.5000    0.0000    0.0000 C   0  0  0  0  0  0  0  0  0  0  0  0
   -0.7500    1.2990    0.0000 C   0  0  0  0  0  0  0  0  0  0  0  0
    0.7500    1.2990    0.0000 N   0  0  0  0  0  0  0  0  0  0  0  0
  1  2  1  0
  2  3  1  0
  3  4  2  0
  3  5  1  0
  5  6  2  0
  6  7  1  0
  7  8  1  0
  8  9  1  0
  9 10  2  0
 10 11  1  0
 11 12  2  0
 12 13  1  0
 13 14  1  0
 14 15  2  0
 14 16  1  0
 16 17  1  0
 17 18  2  0
 18 19  1  0
 19 20  2  0
 20 21  1  0
 20 22  1  0
 22 23  2  0
 22 24  1  0
 24 25  1  0
 24 26  1  0
 24 27  1  0
 12 28  1  0
 28 29  2  0
  7 30  2  0
 30 31  1  0
 31 32  2  0
 32  5  1  0
 29  9  1  0
 23 17  1  0
M  END
>  <activity_comment>  (49) 
active

>  <activity_id>  (49) 
9622434

>  <activity_properties>  (49) 
[]

>  <assay_chembl_id>  (49) 
CHEMBL1963787

>  <assay_description>  (49) 
PUBCHEM_BIOASSAY: Navigating the Kinome. (Class of assay: other) Panel member name: CAMK2B

>  <assay_type>  (49) 
F

>  <bao_endpoint>  (49) 
BAO_0000192

>  <bao_format>  (49) 
BAO_0000019

>  <bao_label>  (49) 
assay format

>  <canonical_smiles>  (49) 
CNC(=O)c1cc(Oc2ccc(NC(=O)Nc3ccc(Cl)c(c3)C(F)(F)F)cc2)ccn1

>  <data_validity_comment>  (49) 
nan

>  <data_validity_description>  (49) 
nan

>  <document_chembl_id>  (49) 
CHEMBL1201862

>  <document_journal>  (49) 
nan

>  <document_year>  (49) 
nan

>  <ligand_efficiency>  (49) 
nan

>  <molecule_pref_name>  (49) 
SORAFENIB

>  <parent_molecule_chembl_id>  (49) 
CHEMBL1336

>  <pchembl_value>  (49) 
5.4

>  <potential_duplicate>  (49) 
False

>  <qudt_units>  (49) 
http://www.openphacts.org/units/Nanomolar

>  <record_id>  (49) 
1584326

>  <relation>  (49) 
=

>  <src_id>  (49) 
7

>  <standard_flag>  (49) 
True

>  <standard_relation>  (49) 
=

>  <standard_text_value>  (49) 
nan

>  <standard_type>  (49) 
Ki

>  <standard_units>  (49) 
nM

>  <standard_upper_value>  (49) 
nan

>  <standard_value>  (49) 
3981.07

>  <target_chembl_id>  (49) 
CHEMBL4121

>  <target_organism>  (49) 
Homo sapiens

>  <target_pref_name>  (49) 
CaM kinase II beta

>  <target_tax_id>  (49) 
9606

>  <text_value>  (49) 
nan

>  <toid>  (49) 
nan

>  <type>  (49) 
pKi

>  <units>  (49) 
nan

>  <uo_units>  (49) 
UO_0000065

>  <upper_value>  (49) 
nan

>  <value>  (49) 
5.4

>  <SMILES>  (49) 
CNC(=O)c1cc(Oc2ccc(NC(=O)Nc3ccc(Cl)c(c3)C(F)(F)F)cc2)ccn1

>  <NAME>  (49) 
CHEMBL1336

>  <FILTER>  (49) 
OK

>  <MW>  (49) 
464.831

>  <LogP>  (49) 
5.5497

>  <HBD>  (49) 
3

>  <HBA>  (49) 
4

>  <TPSA>  (49) 
92.35

>  <Label>  (49) 
CAMK2B

$$$$
CHEMBL1998611
     RDKit          2D

 15 16  0  0  0  0  0  0  0  0999 V2000
    1.2990   -5.8573    0.0000 N   0  0  0  0  0  0  0  0  0  0  0  0
   -0.0000   -5.1073    0.0000 C   0  0  0  0  0  0  0  0  0  0  0  0
   -1.2990   -5.8573    0.0000 O   0  0  0  0  0  0  0  0  0  0  0  0
   -0.0000   -3.6073    0.0000 C   0  0  0  0  0  0  0  0  0  0  0  0
    1.2135   -2.7256    0.0000 S   0  0  0  0  0  0  0  0  0  0  0  0
    0.7500   -1.2990    0.0000 C   0  0  0  0  0  0  0  0  0  0  0  0
    1.5000    0.0000    0.0000 C   0  0  0  0  0  0  0  0  0  0  0  0
    3.0000    0.0000    0.0000 Br  0  0  0  0  0  0  0  0  0  0  0  0
    0.7500    1.2990    0.0000 C   0  0  0  0  0  0  0  0  0  0  0  0
   -0.7500    1.2990    0.0000 C   0  0  0  0  0  0  0  0  0  0  0  0
   -1.5000    0.0000    0.0000 C   0  0  0  0  0  0  0  0  0  0  0  0
   -3.0000    0.0000    0.0000 Cl  0  0  0  0  0  0  0  0  0  0  0  0
   -0.7500   -1.2990    0.0000 C   0  0  0  0  0  0  0  0  0  0  0  0
   -1.2135   -2.7256    0.0000 C   0  0  0  0  0  0  0  0  0  0  0  0
   -2.6401   -3.1891    0.0000 N   0  0  0  0  0  0  0  0  0  0  0  0
  1  2  1  0
  2  3  2  0
  2  4  1  0
  4  5  1  0
  5  6  1  0
  6  7  2  0
  7  8  1  0
  7  9  1  0
  9 10  2  0
 10 11  1  0
 11 12  1  0
 11 13  2  0
 13 14  1  0
 14 15  1  0
 14  4  2  0
 13  6  1  0
M  END
>  <activity_comment>  (50) 
active

>  <activity_id>  (50) 
9622435

>  <activity_properties>  (50) 
[]

>  <assay_chembl_id>  (50) 
CHEMBL1963787

>  <assay_description>  (50) 
PUBCHEM_BIOASSAY: Navigating the Kinome. (Class of assay: other) Panel member name: CAMK2B

>  <assay_type>  (50) 
F

>  <bao_endpoint>  (50) 
BAO_0000192

>  <bao_format>  (50) 
BAO_0000019

>  <bao_label>  (50) 
assay format

>  <canonical_smiles>  (50) 
NC(=O)c1sc2c(Br)ccc(Cl)c2c1N

>  <data_validity_comment>  (50) 
nan

>  <data_validity_description>  (50) 
nan

>  <document_chembl_id>  (50) 
CHEMBL1201862

>  <document_journal>  (50) 
nan

>  <document_year>  (50) 
nan

>  <ligand_efficiency>  (50) 
nan

>  <molecule_pref_name>  (50) 
nan

>  <parent_molecule_chembl_id>  (50) 
CHEMBL1998611

>  <pchembl_value>  (50) 
5.4

>  <potential_duplicate>  (50) 
False

>  <qudt_units>  (50) 
http://www.openphacts.org/units/Nanomolar

>  <record_id>  (50) 
1585190

>  <relation>  (50) 
=

>  <src_id>  (50) 
7

>  <standard_flag>  (50) 
True

>  <standard_relation>  (50) 
=

>  <standard_text_value>  (50) 
nan

>  <standard_type>  (50) 
Ki

>  <standard_units>  (50) 
nM

>  <standard_upper_value>  (50) 
nan

>  <standard_value>  (50) 
3981.07

>  <target_chembl_id>  (50) 
CHEMBL4121

>  <target_organism>  (50) 
Homo sapiens

>  <target_pref_name>  (50) 
CaM kinase II beta

>  <target_tax_id>  (50) 
9606

>  <text_value>  (50) 
nan

>  <toid>  (50) 
nan

>  <type>  (50) 
pKi

>  <units>  (50) 
nan

>  <uo_units>  (50) 
UO_0000065

>  <upper_value>  (50) 
nan

>  <value>  (50) 
5.4

>  <SMILES>  (50) 
NC(=O)c1sc2c(Br)ccc(Cl)c2c1N

>  <NAME>  (50) 
CHEMBL1998611

>  <FILTER>  (50) 
OK

>  <MW>  (50) 
305.584

>  <LogP>  (50) 
2.9983

>  <HBD>  (50) 
2

>  <HBA>  (50) 
3

>  <TPSA>  (50) 
69.11

>  <Label>  (50) 
CAMK2B

$$$$
CHEMBL2006778
     RDKit          2D

 27 30  0  0  0  0  0  0  0  0999 V2000
   -4.9294   -7.5000    0.0000 C   0  0  0  0  0  0  0  0  0  0  0  0
   -4.9294   -6.0000    0.0000 N   0  0  0  0  0  0  0  0  0  0  0  0
   -3.6304   -5.2500    0.0000 C   0  0  0  0  0  0  0  0  0  0  0  0
   -2.3313   -6.0000    0.0000 O   0  0  0  0  0  0  0  0  0  0  0  0
   -3.6304   -3.7500    0.0000 C   0  0  0  0  0  0  0  0  0  0  0  0
   -2.3313   -3.0000    0.0000 C   0  0  0  0  0  0  0  0  0  0  0  0
   -2.3313   -1.5000    0.0000 C   0  0  0  0  0  0  0  0  0  0  0  0
   -3.6304   -0.7500    0.0000 C   0  0  0  0  0  0  0  0  0  0  0  0
   -3.6304    0.7500    0.0000 N   0  0  0  0  0  0  0  0  0  0  0  0
   -2.3313    1.5000    0.0000 C   0  0  0  0  0  0  0  0  0  0  0  0
   -2.3313    3.0000    0.0000 N   0  0  0  0  0  0  0  0  0  0  0  0
   -1.0323    0.7500    0.0000 C   0  0  0  0  0  0  0  0  0  0  0  0
    0.3943    1.2135    0.0000 C   0  0  0  0  0  0  0  0  0  0  0  0
    1.2760    0.0000    0.0000 C   0  0  0  0  0  0  0  0  0  0  0  0
    0.3943   -1.2135    0.0000 S   0  0  0  0  0  0  0  0  0  0  0  0
   -1.0323   -0.7500    0.0000 C   0  0  0  0  0  0  0  0  0  0  0  0
    0.8578    2.6401    0.0000 C   0  0  0  0  0  0  0  0  0  0  0  0
   -0.1459    3.7548    0.0000 C   0  0  0  0  0  0  0  0  0  0  0  0
    0.3177    5.1814    0.0000 C   0  0  0  0  0  0  0  0  0  0  0  0
   -0.6860    6.2961    0.0000 F   0  0  0  0  0  0  0  0  0  0  0  0
    1.7849    5.4933    0.0000 C   0  0  0  0  0  0  0  0  0  0  0  0
    2.5349    6.7923    0.0000 N   0  0  0  0  0  0  0  0  0  0  0  0
    4.0021    6.4805    0.0000 C   0  0  0  0  0  0  0  0  0  0  0  0
    5.1168    7.4841    0.0000 C   0  0  0  0  0  0  0  0  0  0  0  0
    4.1589    4.9887    0.0000 C   0  0  0  0  0  0  0  0  0  0  0  0
    2.7886    4.3786    0.0000 C   0  0  0  0  0  0  0  0  0  0  0  0
    2.3250    2.9520    0.0000 C   0  0  0  0  0  0  0  0  0  0  0  0
  1  2  1  0
  2  3  1  0
  3  4  2  0
  3  5  1  0
  5  6  2  3
  6  7  1  0
  7  8  2  0
  8  9  1  0
  9 10  2  0
 10 11  1  0
 10 12  1  0
 12 13  1  0
 13 14  2  0
 14 15  1  0
 15 16  1  0
 13 17  1  0
 17 18  2  0
 18 19  1  0
 19 20  1  0
 19 21  2  0
 21 22  1  0
 22 23  1  0
 23 24  1  0
 23 25  2  0
 25 26  1  0
 26 27  2  0
 16  7  1  0
 16 12  2  0
 27 17  1  0
 26 21  1  0
M  END
>  <activity_comment>  (51) 
active

>  <activity_id>  (51) 
9622439

>  <activity_properties>  (51) 
[]

>  <assay_chembl_id>  (51) 
CHEMBL1963787

>  <assay_description>  (51) 
PUBCHEM_BIOASSAY: Navigating the Kinome. (Class of assay: other) Panel member name: CAMK2B

>  <assay_type>  (51) 
F

>  <bao_endpoint>  (51) 
BAO_0000192

>  <bao_format>  (51) 
BAO_0000019

>  <bao_label>  (51) 
assay format

>  <canonical_smiles>  (51) 
CNC(=O)C=Cc1cnc(N)c2c(csc12)c3cc(F)c4[nH]c(C)cc4c3

>  <data_validity_comment>  (51) 
nan

>  <data_validity_description>  (51) 
nan

>  <document_chembl_id>  (51) 
CHEMBL1201862

>  <document_journal>  (51) 
nan

>  <document_year>  (51) 
nan

>  <ligand_efficiency>  (51) 
nan

>  <molecule_pref_name>  (51) 
nan

>  <parent_molecule_chembl_id>  (51) 
CHEMBL2006778

>  <pchembl_value>  (51) 
5.1

>  <potential_duplicate>  (51) 
False

>  <qudt_units>  (51) 
http://www.openphacts.org/units/Nanomolar

>  <record_id>  (51) 
1584976

>  <relation>  (51) 
=

>  <src_id>  (51) 
7

>  <standard_flag>  (51) 
True

>  <standard_relation>  (51) 
=

>  <standard_text_value>  (51) 
nan

>  <standard_type>  (51) 
Ki

>  <standard_units>  (51) 
nM

>  <standard_upper_value>  (51) 
nan

>  <standard_value>  (51) 
7943.28

>  <target_chembl_id>  (51) 
CHEMBL4121

>  <target_organism>  (51) 
Homo sapiens

>  <target_pref_name>  (51) 
CaM kinase II beta

>  <target_tax_id>  (51) 
9606

>  <text_value>  (51) 
nan

>  <toid>  (51) 
nan

>  <type>  (51) 
pKi

>  <units>  (51) 
nan

>  <uo_units>  (51) 
UO_0000065

>  <upper_value>  (51) 
nan

>  <value>  (51) 
5.1

>  <SMILES>  (51) 
CNC(=O)C=Cc1cnc(N)c2c(csc12)c3cc(F)c4[nH]c(C)cc4c3

>  <NAME>  (51) 
CHEMBL2006778

>  <FILTER>  (51) 
OK

>  <MW>  (51) 
380.448

>  <LogP>  (51) 
4.23352

>  <HBD>  (51) 
3

>  <HBA>  (51) 
4

>  <TPSA>  (51) 
83.8

>  <Label>  (51) 
CAMK2B

$$$$
CHEMBL1996979
     RDKit          2D

 26 29  0  0  0  0  0  0  0  0999 V2000
    3.7500   -3.8971    0.0000 F   0  0  0  0  0  0  0  0  0  0  0  0
    3.0000   -5.1962    0.0000 C   0  0  0  0  0  0  0  0  0  0  0  0
    3.7500   -6.4952    0.0000 C   0  0  0  0  0  0  0  0  0  0  0  0
    3.0000   -7.7942    0.0000 C   0  0  0  0  0  0  0  0  0  0  0  0
    1.5000   -7.7942    0.0000 C   0  0  0  0  0  0  0  0  0  0  0  0
    0.7500   -6.4952    0.0000 C   0  0  0  0  0  0  0  0  0  0  0  0
   -0.7500   -6.4952    0.0000 F   0  0  0  0  0  0  0  0  0  0  0  0
    1.5000   -5.1962    0.0000 C   0  0  0  0  0  0  0  0  0  0  0  0
    0.7500   -3.8971    0.0000 C   0  0  0  0  0  0  0  0  0  0  0  0
   -0.7500   -3.8971    0.0000 O   0  0  0  0  0  0  0  0  0  0  0  0
    1.5000   -2.5981    0.0000 N   0  0  0  0  0  0  0  0  0  0  0  0
    0.7500   -1.2990    0.0000 C   0  0  0  0  0  0  0  0  0  0  0  0
    1.5000    0.0000    0.0000 C   0  0  0  0  0  0  0  0  0  0  0  0
    0.7500    1.2990    0.0000 N   0  0  0  0  0  0  0  0  0  0  0  0
   -0.7500    1.2990    0.0000 C   0  0  0  0  0  0  0  0  0  0  0  0
   -1.7537    2.4138    0.0000 N   0  0  0  0  0  0  0  0  0  0  0  0
   -3.1240    1.8037    0.0000 C   0  0  0  0  0  0  0  0  0  0  0  0
   -2.9672    0.3119    0.0000 C   0  0  0  0  0  0  0  0  0  0  0  0
   -4.0819   -0.6918    0.0000 C   0  0  0  0  0  0  0  0  0  0  0  0
   -5.5085   -0.2283    0.0000 C   0  0  0  0  0  0  0  0  0  0  0  0
   -6.6232   -1.2320    0.0000 C   0  0  0  0  0  0  0  0  0  0  0  0
   -6.3114   -2.6992    0.0000 C   0  0  0  0  0  0  0  0  0  0  0  0
   -4.8848   -3.1627    0.0000 C   0  0  0  0  0  0  0  0  0  0  0  0
   -3.7701   -2.1590    0.0000 C   0  0  0  0  0  0  0  0  0  0  0  0
   -1.5000    0.0000    0.0000 C   0  0  0  0  0  0  0  0  0  0  0  0
   -0.7500   -1.2990    0.0000 C   0  0  0  0  0  0  0  0  0  0  0  0
  1  2  1  0
  2  3  2  0
  3  4  1  0
  4  5  2  0
  5  6  1  0
  6  7  1  0
  6  8  2  0
  8  9  1  0
  9 10  2  0
  9 11  1  0
 11 12  1  0
 12 13  2  0
 13 14  1  0
 14 15  2  0
 15 16  1  0
 16 17  1  0
 17 18  2  0
 18 19  1  0
 19 20  2  0
 20 21  1  0
 21 22  2  0
 22 23  1  0
 23 24  2  0
 18 25  1  0
 25 26  2  0
  8  2  1  0
 26 12  1  0
 25 15  1  0
 24 19  1  0
M  END
>  <activity_comment>  (52) 
active

>  <activity_id>  (52) 
9622441

>  <activity_properties>  (52) 
[]

>  <assay_chembl_id>  (52) 
CHEMBL1963787

>  <assay_description>  (52) 
PUBCHEM_BIOASSAY: Navigating the Kinome. (Class of assay: other) Panel member name: CAMK2B

>  <assay_type>  (52) 
F

>  <bao_endpoint>  (52) 
BAO_0000192

>  <bao_format>  (52) 
BAO_0000019

>  <bao_label>  (52) 
assay format

>  <canonical_smiles>  (52) 
Fc1cccc(F)c1C(=O)Nc2cnc3[nH]cc(c4ccccc4)c3c2

>  <data_validity_comment>  (52) 
nan

>  <data_validity_description>  (52) 
nan

>  <document_chembl_id>  (52) 
CHEMBL1201862

>  <document_journal>  (52) 
nan

>  <document_year>  (52) 
nan

>  <ligand_efficiency>  (52) 
nan

>  <molecule_pref_name>  (52) 
nan

>  <parent_molecule_chembl_id>  (52) 
CHEMBL1996979

>  <pchembl_value>  (52) 
6.0

>  <potential_duplicate>  (52) 
False

>  <qudt_units>  (52) 
http://www.openphacts.org/units/Nanomolar

>  <record_id>  (52) 
1584078

>  <relation>  (52) 
=

>  <src_id>  (52) 
7

>  <standard_flag>  (52) 
True

>  <standard_relation>  (52) 
=

>  <standard_text_value>  (52) 
nan

>  <standard_type>  (52) 
Ki

>  <standard_units>  (52) 
nM

>  <standard_upper_value>  (52) 
nan

>  <standard_value>  (52) 
1000.0

>  <target_chembl_id>  (52) 
CHEMBL4121

>  <target_organism>  (52) 
Homo sapiens

>  <target_pref_name>  (52) 
CaM kinase II beta

>  <target_tax_id>  (52) 
9606

>  <text_value>  (52) 
nan

>  <toid>  (52) 
nan

>  <type>  (52) 
pKi

>  <units>  (52) 
nan

>  <uo_units>  (52) 
UO_0000065

>  <upper_value>  (52) 
nan

>  <value>  (52) 
6.0

>  <SMILES>  (52) 
Fc1cccc(F)c1C(=O)Nc2cnc3[nH]cc(c4ccccc4)c3c2

>  <NAME>  (52) 
CHEMBL1996979

>  <FILTER>  (52) 
OK

>  <MW>  (52) 
349.34

>  <LogP>  (52) 
4.7604

>  <HBD>  (52) 
2

>  <HBA>  (52) 
2

>  <TPSA>  (52) 
57.78

>  <Label>  (52) 
CAMK2B

$$$$
CHEMBL1990496
     RDKit          2D

 35 39  0  0  0  0  0  0  0  0999 V2000
   -0.7500   -9.0933    0.0000 C   0  0  0  0  0  0  0  0  0  0  0  0
   -1.5000   -7.7942    0.0000 N   0  0  0  0  0  0  0  0  0  0  0  0
   -3.0000   -7.7942    0.0000 C   0  0  0  0  0  0  0  0  0  0  0  0
   -3.7500   -6.4952    0.0000 N   0  0  0  0  0  0  0  0  0  0  0  0
   -3.0000   -5.1962    0.0000 C   0  0  0  0  0  0  0  0  0  0  0  0
   -1.5000   -5.1962    0.0000 C   0  0  0  0  0  0  0  0  0  0  0  0
   -0.7500   -6.4952    0.0000 C   0  0  0  0  0  0  0  0  0  0  0  0
    0.7500   -6.4952    0.0000 O   0  0  0  0  0  0  0  0  0  0  0  0
   -0.7500   -3.8971    0.0000 C   0  0  0  0  0  0  0  0  0  0  0  0
    0.7500   -3.8971    0.0000 C   0  0  0  0  0  0  0  0  0  0  0  0
    1.5000   -2.5981    0.0000 C   0  0  0  0  0  0  0  0  0  0  0  0
    0.7500   -1.2990    0.0000 C   0  0  0  0  0  0  0  0  0  0  0  0
    1.5000    0.0000    0.0000 C   0  0  0  0  0  0  0  0  0  0  0  0
    0.7500    1.2990    0.0000 C   0  0  0  0  0  0  0  0  0  0  0  0
   -0.7500    1.2990    0.0000 C   0  0  0  0  0  0  0  0  0  0  0  0
   -1.5000    0.0000    0.0000 C   0  0  0  0  0  0  0  0  0  0  0  0
   -0.7500   -1.2990    0.0000 C   0  0  0  0  0  0  0  0  0  0  0  0
   -1.5000   -2.5981    0.0000 C   0  0  0  0  0  0  0  0  0  0  0  0
   -3.7500   -3.8971    0.0000 C   0  0  0  0  0  0  0  0  0  0  0  0
   -3.0000   -2.5981    0.0000 C   0  0  0  0  0  0  0  0  0  0  0  0
   -3.7500   -1.2990    0.0000 C   0  0  0  0  0  0  0  0  0  0  0  0
   -5.2500   -1.2990    0.0000 N   0  0  0  0  0  0  0  0  0  0  0  0
   -6.0000   -2.5981    0.0000 C   0  0  0  0  0  0  0  0  0  0  0  0
   -5.2500   -3.8971    0.0000 C   0  0  0  0  0  0  0  0  0  0  0  0
   -3.7500   -9.0933    0.0000 N   0  0  0  0  0  0  0  0  0  0  0  0
   -5.2500   -9.0933    0.0000 C   0  0  0  0  0  0  0  0  0  0  0  0
   -6.0000  -10.3923    0.0000 C   0  0  0  0  0  0  0  0  0  0  0  0
   -5.2500  -11.6913    0.0000 N   0  0  0  0  0  0  0  0  0  0  0  0
   -7.5000  -10.3923    0.0000 C   0  0  0  0  0  0  0  0  0  0  0  0
   -8.2500  -11.6913    0.0000 C   0  0  0  0  0  0  0  0  0  0  0  0
   -9.7500  -11.6913    0.0000 C   0  0  0  0  0  0  0  0  0  0  0  0
  -10.5000  -12.9904    0.0000 C   0  0  0  0  0  0  0  0  0  0  0  0
   -9.7500  -14.2894    0.0000 C   0  0  0  0  0  0  0  0  0  0  0  0
   -8.2500  -14.2894    0.0000 C   0  0  0  0  0  0  0  0  0  0  0  0
   -7.5000  -12.9904    0.0000 C   0  0  0  0  0  0  0  0  0  0  0  0
  1  2  1  0
  2  3  1  0
  3  4  2  0
  4  5  1  0
  5  6  2  0
  6  7  1  0
  7  8  2  0
  6  9  1  0
  9 10  2  0
 10 11  1  0
 11 12  2  0
 12 13  1  0
 13 14  2  0
 14 15  1  0
 15 16  2  0
 16 17  1  0
 17 18  2  0
  5 19  1  0
 19 20  2  0
 20 21  1  0
 21 22  2  0
 22 23  1  0
 23 24  2  0
  3 25  1  0
 25 26  1  0
 26 27  1  0
 27 28  1  0
 27 29  1  0
 29 30  1  0
 30 31  2  0
 31 32  1  0
 32 33  2  0
 33 34  1  0
 34 35  2  0
  7  2  1  0
 18  9  1  0
 17 12  1  0
 24 19  1  0
 35 30  1  0
M  END
>  <activity_comment>  (53) 
active

>  <activity_id>  (53) 
9622449

>  <activity_properties>  (53) 
[]

>  <assay_chembl_id>  (53) 
CHEMBL1963787

>  <assay_description>  (53) 
PUBCHEM_BIOASSAY: Navigating the Kinome. (Class of assay: other) Panel member name: CAMK2B

>  <assay_type>  (53) 
F

>  <bao_endpoint>  (53) 
BAO_0000192

>  <bao_format>  (53) 
BAO_0000019

>  <bao_label>  (53) 
assay format

>  <canonical_smiles>  (53) 
CN1C(=NC(=C(C1=O)c2ccc3ccccc3c2)c4ccncc4)NCC(N)Cc5ccccc5

>  <data_validity_comment>  (53) 
nan

>  <data_validity_description>  (53) 
nan

>  <document_chembl_id>  (53) 
CHEMBL1201862

>  <document_journal>  (53) 
nan

>  <document_year>  (53) 
nan

>  <ligand_efficiency>  (53) 
nan

>  <molecule_pref_name>  (53) 
nan

>  <parent_molecule_chembl_id>  (53) 
CHEMBL1990496

>  <pchembl_value>  (53) 
5.4

>  <potential_duplicate>  (53) 
False

>  <qudt_units>  (53) 
http://www.openphacts.org/units/Nanomolar

>  <record_id>  (53) 
1585444

>  <relation>  (53) 
=

>  <src_id>  (53) 
7

>  <standard_flag>  (53) 
True

>  <standard_relation>  (53) 
=

>  <standard_text_value>  (53) 
nan

>  <standard_type>  (53) 
Ki

>  <standard_units>  (53) 
nM

>  <standard_upper_value>  (53) 
nan

>  <standard_value>  (53) 
3981.07

>  <target_chembl_id>  (53) 
CHEMBL4121

>  <target_organism>  (53) 
Homo sapiens

>  <target_pref_name>  (53) 
CaM kinase II beta

>  <target_tax_id>  (53) 
9606

>  <text_value>  (53) 
nan

>  <toid>  (53) 
nan

>  <type>  (53) 
pKi

>  <units>  (53) 
nan

>  <uo_units>  (53) 
UO_0000065

>  <upper_value>  (53) 
nan

>  <value>  (53) 
5.4

>  <SMILES>  (53) 
CN1C(=NC(=C(C1=O)c2ccc3ccccc3c2)c4ccncc4)NCC(N)Cc5ccccc5

>  <NAME>  (53) 
CHEMBL1990496

>  <FILTER>  (53) 
OK

>  <MW>  (53) 
461.569

>  <LogP>  (53) 
4.6444

>  <HBD>  (53) 
2

>  <HBA>  (53) 
6

>  <TPSA>  (53) 
85.83

>  <Label>  (53) 
CAMK2B

$$$$
CHEMBL2002479
     RDKit          2D

 32 36  0  0  0  0  0  0  0  0999 V2000
    3.3802    9.0132    0.0000 N   0  0  0  0  0  0  0  0  0  0  0  0
    3.0684    7.5459    0.0000 C   0  0  0  0  0  0  0  0  0  0  0  0
    1.6418    7.0824    0.0000 C   0  0  0  0  0  0  0  0  0  0  0  0
    1.3299    5.6152    0.0000 C   0  0  0  0  0  0  0  0  0  0  0  0
   -0.0967    5.1517    0.0000 O   0  0  0  0  0  0  0  0  0  0  0  0
   -0.4086    3.6844    0.0000 C   0  0  0  0  0  0  0  0  0  0  0  0
    0.7062    2.6807    0.0000 C   0  0  0  0  0  0  0  0  0  0  0  0
    0.3943    1.2135    0.0000 C   0  0  0  0  0  0  0  0  0  0  0  0
    1.2760    0.0000    0.0000 C   0  0  0  0  0  0  0  0  0  0  0  0
    2.7760    0.0000    0.0000 O   0  0  0  0  0  0  0  0  0  0  0  0
    0.3943   -1.2135    0.0000 N   0  0  0  0  0  0  0  0  0  0  0  0
   -1.0323   -0.7500    0.0000 C   0  0  0  0  0  0  0  0  0  0  0  0
   -1.0323    0.7500    0.0000 C   0  0  0  0  0  0  0  0  0  0  0  0
   -2.1470    1.7537    0.0000 C   0  0  0  0  0  0  0  0  0  0  0  0
   -1.8351    3.2209    0.0000 C   0  0  0  0  0  0  0  0  0  0  0  0
   -3.5736    1.2902    0.0000 C   0  0  0  0  0  0  0  0  0  0  0  0
   -4.6883    2.2939    0.0000 C   0  0  0  0  0  0  0  0  0  0  0  0
   -6.1149    1.8303    0.0000 C   0  0  0  0  0  0  0  0  0  0  0  0
   -6.4268    0.3631    0.0000 C   0  0  0  0  0  0  0  0  0  0  0  0
   -7.8533   -0.1004    0.0000 N   0  0  0  0  0  0  0  0  0  0  0  0
   -8.9681    0.9033    0.0000 C   0  0  0  0  0  0  0  0  0  0  0  0
   -8.8113    2.3951    0.0000 O   0  0  0  0  0  0  0  0  0  0  0  0
  -10.1816    3.0052    0.0000 C   0  0  0  0  0  0  0  0  0  0  0  0
  -10.6451    4.4318    0.0000 C   0  0  0  0  0  0  0  0  0  0  0  0
  -12.1123    4.7436    0.0000 C   0  0  0  0  0  0  0  0  0  0  0  0
  -12.5759    6.1702    0.0000 Cl  0  0  0  0  0  0  0  0  0  0  0  0
  -13.1160    3.6289    0.0000 C   0  0  0  0  0  0  0  0  0  0  0  0
  -12.6525    2.2023    0.0000 C   0  0  0  0  0  0  0  0  0  0  0  0
  -11.1853    1.8905    0.0000 C   0  0  0  0  0  0  0  0  0  0  0  0
  -10.4353    0.5914    0.0000 N   0  0  0  0  0  0  0  0  0  0  0  0
   -5.3120   -0.6406    0.0000 C   0  0  0  0  0  0  0  0  0  0  0  0
   -3.8855   -0.1771    0.0000 C   0  0  0  0  0  0  0  0  0  0  0  0
  1  2  1  0
  2  3  1  0
  3  4  1  0
  4  5  1  0
  5  6  1  0
  6  7  2  0
  7  8  1  0
  8  9  1  0
  9 10  2  0
  9 11  1  0
 11 12  1  0
 12 13  1  0
 13 14  1  0
 14 15  2  0
 14 16  1  0
 16 17  2  0
 17 18  1  0
 18 19  2  0
 19 20  1  0
 20 21  1  0
 21 22  1  0
 22 23  1  0
 23 24  2  0
 24 25  1  0
 25 26  1  0
 25 27  2  0
 27 28  1  0
 28 29  2  0
 29 30  1  0
 19 31  1  0
 31 32  2  0
 15  6  1  0
 13  8  2  0
 32 16  1  0
 30 21  2  0
 29 23  1  0
M  END
>  <activity_comment>  (54) 
active

>  <activity_id>  (54) 
9622450

>  <activity_properties>  (54) 
[]

>  <assay_chembl_id>  (54) 
CHEMBL1963787

>  <assay_description>  (54) 
PUBCHEM_BIOASSAY: Navigating the Kinome. (Class of assay: other) Panel member name: CAMK2B

>  <assay_type>  (54) 
F

>  <bao_endpoint>  (54) 
BAO_0000192

>  <bao_format>  (54) 
BAO_0000019

>  <bao_label>  (54) 
assay format

>  <canonical_smiles>  (54) 
NCCCOc1cc2C(=O)NCc2c(c1)c3ccc(Nc4oc5cc(Cl)ccc5n4)cc3

>  <data_validity_comment>  (54) 
nan

>  <data_validity_description>  (54) 
nan

>  <document_chembl_id>  (54) 
CHEMBL1201862

>  <document_journal>  (54) 
nan

>  <document_year>  (54) 
nan

>  <ligand_efficiency>  (54) 
nan

>  <molecule_pref_name>  (54) 
nan

>  <parent_molecule_chembl_id>  (54) 
CHEMBL2002479

>  <pchembl_value>  (54) 
5.3

>  <potential_duplicate>  (54) 
False

>  <qudt_units>  (54) 
http://www.openphacts.org/units/Nanomolar

>  <record_id>  (54) 
1584529

>  <relation>  (54) 
=

>  <src_id>  (54) 
7

>  <standard_flag>  (54) 
True

>  <standard_relation>  (54) 
=

>  <standard_text_value>  (54) 
nan

>  <standard_type>  (54) 
Ki

>  <standard_units>  (54) 
nM

>  <standard_upper_value>  (54) 
nan

>  <standard_value>  (54) 
5011.87

>  <target_chembl_id>  (54) 
CHEMBL4121

>  <target_organism>  (54) 
Homo sapiens

>  <target_pref_name>  (54) 
CaM kinase II beta

>  <target_tax_id>  (54) 
9606

>  <text_value>  (54) 
nan

>  <toid>  (54) 
nan

>  <type>  (54) 
pKi

>  <units>  (54) 
nan

>  <uo_units>  (54) 
UO_0000065

>  <upper_value>  (54) 
nan

>  <value>  (54) 
5.3

>  <SMILES>  (54) 
NCCCOc1cc2C(=O)NCc2c(c1)c3ccc(Nc4oc5cc(Cl)ccc5n4)cc3

>  <NAME>  (54) 
CHEMBL2002479

>  <FILTER>  (54) 
OK

>  <MW>  (54) 
448.91

>  <LogP>  (54) 
4.8628

>  <HBD>  (54) 
3

>  <HBA>  (54) 
6

>  <TPSA>  (54) 
102.41

>  <Label>  (54) 
CAMK2B

$$$$
CHEMBL1982992
     RDKit          2D

 18 20  0  0  0  0  0  0  0  0999 V2000
    6.0000   -0.0000    0.0000 O   0  0  0  0  0  0  0  0  0  0  0  0
    5.2500   -1.2990    0.0000 C   0  0  0  0  0  0  0  0  0  0  0  0
    6.0000   -2.5981    0.0000 C   0  0  0  0  0  0  0  0  0  0  0  0
    5.2500   -3.8971    0.0000 C   0  0  0  0  0  0  0  0  0  0  0  0
    3.7500   -3.8971    0.0000 C   0  0  0  0  0  0  0  0  0  0  0  0
    3.0000   -2.5981    0.0000 C   0  0  0  0  0  0  0  0  0  0  0  0
    1.5000   -2.5981    0.0000 N   0  0  0  0  0  0  0  0  0  0  0  0
    0.7500   -1.2990    0.0000 C   0  0  0  0  0  0  0  0  0  0  0  0
    1.5000    0.0000    0.0000 N   0  0  0  0  0  0  0  0  0  0  0  0
    0.7500    1.2990    0.0000 C   0  0  0  0  0  0  0  0  0  0  0  0
   -0.7500    1.2990    0.0000 N   0  0  0  0  0  0  0  0  0  0  0  0
   -1.5000    0.0000    0.0000 C   0  0  0  0  0  0  0  0  0  0  0  0
   -2.9672   -0.3119    0.0000 S   0  0  0  0  0  0  0  0  0  0  0  0
   -3.1240   -1.8037    0.0000 C   0  0  0  0  0  0  0  0  0  0  0  0
   -1.7537   -2.4138    0.0000 C   0  0  0  0  0  0  0  0  0  0  0  0
   -1.4418   -3.8810    0.0000 Cl  0  0  0  0  0  0  0  0  0  0  0  0
   -0.7500   -1.2990    0.0000 C   0  0  0  0  0  0  0  0  0  0  0  0
    3.7500   -1.2990    0.0000 C   0  0  0  0  0  0  0  0  0  0  0  0
  1  2  1  0
  2  3  2  0
  3  4  1  0
  4  5  2  0
  5  6  1  0
  6  7  1  0
  7  8  1  0
  8  9  2  0
  9 10  1  0
 10 11  2  0
 11 12  1  0
 12 13  1  0
 13 14  1  0
 14 15  2  0
 15 16  1  0
 15 17  1  0
  6 18  2  0
 18  2  1  0
 17  8  1  0
 17 12  2  0
M  END
>  <activity_comment>  (55) 
active

>  <activity_id>  (55) 
9622454

>  <activity_properties>  (55) 
[]

>  <assay_chembl_id>  (55) 
CHEMBL1963787

>  <assay_description>  (55) 
PUBCHEM_BIOASSAY: Navigating the Kinome. (Class of assay: other) Panel member name: CAMK2B

>  <assay_type>  (55) 
F

>  <bao_endpoint>  (55) 
BAO_0000192

>  <bao_format>  (55) 
BAO_0000019

>  <bao_label>  (55) 
assay format

>  <canonical_smiles>  (55) 
Oc1cccc(Nc2ncnc3scc(Cl)c23)c1

>  <data_validity_comment>  (55) 
nan

>  <data_validity_description>  (55) 
nan

>  <document_chembl_id>  (55) 
CHEMBL1201862

>  <document_journal>  (55) 
nan

>  <document_year>  (55) 
nan

>  <ligand_efficiency>  (55) 
nan

>  <molecule_pref_name>  (55) 
nan

>  <parent_molecule_chembl_id>  (55) 
CHEMBL1982992

>  <pchembl_value>  (55) 
5.1

>  <potential_duplicate>  (55) 
False

>  <qudt_units>  (55) 
http://www.openphacts.org/units/Nanomolar

>  <record_id>  (55) 
1584966

>  <relation>  (55) 
=

>  <src_id>  (55) 
7

>  <standard_flag>  (55) 
True

>  <standard_relation>  (55) 
=

>  <standard_text_value>  (55) 
nan

>  <standard_type>  (55) 
Ki

>  <standard_units>  (55) 
nM

>  <standard_upper_value>  (55) 
nan

>  <standard_value>  (55) 
7943.28

>  <target_chembl_id>  (55) 
CHEMBL4121

>  <target_organism>  (55) 
Homo sapiens

>  <target_pref_name>  (55) 
CaM kinase II beta

>  <target_tax_id>  (55) 
9606

>  <text_value>  (55) 
nan

>  <toid>  (55) 
nan

>  <type>  (55) 
pKi

>  <units>  (55) 
nan

>  <uo_units>  (55) 
UO_0000065

>  <upper_value>  (55) 
nan

>  <value>  (55) 
5.1

>  <SMILES>  (55) 
Oc1cccc(Nc2ncnc3scc(Cl)c23)c1

>  <NAME>  (55) 
CHEMBL1982992

>  <FILTER>  (55) 
OK

>  <MW>  (55) 
277.736

>  <LogP>  (55) 
3.7939

>  <HBD>  (55) 
2

>  <HBA>  (55) 
5

>  <TPSA>  (55) 
58.04

>  <Label>  (55) 
CAMK2B

$$$$
CHEMBL1980896
     RDKit          2D

 28 31  0  0  0  0  0  0  0  0999 V2000
    3.0000    0.0000    0.0000 N   0  0  0  0  0  0  0  0  0  0  0  0
    1.5000    0.0000    0.0000 C   0  0  0  0  0  0  0  0  0  0  0  0
    0.7500   -1.2990    0.0000 N   0  0  0  0  0  0  0  0  0  0  0  0
   -0.7500   -1.2990    0.0000 C   0  0  0  0  0  0  0  0  0  0  0  0
   -1.5000    0.0000    0.0000 N   0  0  0  0  0  0  0  0  0  0  0  0
   -0.7500    1.2990    0.0000 C   0  0  0  0  0  0  0  0  0  0  0  0
   -1.2135    2.7256    0.0000 S   0  0  0  0  0  0  0  0  0  0  0  0
   -0.0000    3.6073    0.0000 C   0  0  0  0  0  0  0  0  0  0  0  0
   -0.0000    5.1073    0.0000 Br  0  0  0  0  0  0  0  0  0  0  0  0
    1.2135    2.7256    0.0000 C   0  0  0  0  0  0  0  0  0  0  0  0
    2.6401    3.1891    0.0000 C   0  0  0  0  0  0  0  0  0  0  0  0
    3.7548    2.1855    0.0000 C   0  0  0  0  0  0  0  0  0  0  0  0
    5.1814    2.6490    0.0000 C   0  0  0  0  0  0  0  0  0  0  0  0
    5.4933    4.1162    0.0000 C   0  0  0  0  0  0  0  0  0  0  0  0
    6.9199    4.5797    0.0000 N   0  0  0  0  0  0  0  0  0  0  0  0
    8.0346    3.5760    0.0000 C   0  0  0  0  0  0  0  0  0  0  0  0
    7.7227    2.1088    0.0000 O   0  0  0  0  0  0  0  0  0  0  0  0
    9.4612    4.0396    0.0000 C   0  0  0  0  0  0  0  0  0  0  0  0
   10.5759    3.0359    0.0000 C   0  0  0  0  0  0  0  0  0  0  0  0
   10.2640    1.5686    0.0000 C   0  0  0  0  0  0  0  0  0  0  0  0
   11.3787    0.5649    0.0000 C   0  0  0  0  0  0  0  0  0  0  0  0
   12.8053    1.0285    0.0000 C   0  0  0  0  0  0  0  0  0  0  0  0
   13.1172    2.4957    0.0000 C   0  0  0  0  0  0  0  0  0  0  0  0
   14.5438    2.9592    0.0000 Cl  0  0  0  0  0  0  0  0  0  0  0  0
   12.0025    3.4994    0.0000 C   0  0  0  0  0  0  0  0  0  0  0  0
    4.3786    5.1199    0.0000 C   0  0  0  0  0  0  0  0  0  0  0  0
    2.9520    4.6564    0.0000 C   0  0  0  0  0  0  0  0  0  0  0  0
    0.7500    1.2990    0.0000 C   0  0  0  0  0  0  0  0  0  0  0  0
  1  2  1  0
  2  3  2  0
  3  4  1  0
  4  5  2  0
  5  6  1  0
  6  7  1  0
  7  8  1  0
  8  9  1  0
  8 10  2  0
 10 11  1  0
 11 12  2  0
 12 13  1  0
 13 14  2  0
 14 15  1  0
 15 16  1  0
 16 17  2  0
 16 18  1  0
 18 19  1  0
 19 20  2  0
 20 21  1  0
 21 22  2  0
 22 23  1  0
 23 24  1  0
 23 25  2  0
 14 26  1  0
 26 27  2  0
 10 28  1  0
 28  2  1  0
 28  6  2  0
 27 11  1  0
 25 19  1  0
M  END
>  <activity_comment>  (56) 
active

>  <activity_id>  (56) 
9622466

>  <activity_properties>  (56) 
[]

>  <assay_chembl_id>  (56) 
CHEMBL1963787

>  <assay_description>  (56) 
PUBCHEM_BIOASSAY: Navigating the Kinome. (Class of assay: other) Panel member name: CAMK2B

>  <assay_type>  (56) 
F

>  <bao_endpoint>  (56) 
BAO_0000192

>  <bao_format>  (56) 
BAO_0000019

>  <bao_label>  (56) 
assay format

>  <canonical_smiles>  (56) 
Nc1ncnc2sc(Br)c(c3ccc(NC(=O)Cc4cccc(Cl)c4)cc3)c12

>  <data_validity_comment>  (56) 
nan

>  <data_validity_description>  (56) 
nan

>  <document_chembl_id>  (56) 
CHEMBL1201862

>  <document_journal>  (56) 
nan

>  <document_year>  (56) 
nan

>  <ligand_efficiency>  (56) 
nan

>  <molecule_pref_name>  (56) 
nan

>  <parent_molecule_chembl_id>  (56) 
CHEMBL1980896

>  <pchembl_value>  (56) 
5.4

>  <potential_duplicate>  (56) 
False

>  <qudt_units>  (56) 
http://www.openphacts.org/units/Nanomolar

>  <record_id>  (56) 
1584738

>  <relation>  (56) 
=

>  <src_id>  (56) 
7

>  <standard_flag>  (56) 
True

>  <standard_relation>  (56) 
=

>  <standard_text_value>  (56) 
nan

>  <standard_type>  (56) 
Ki

>  <standard_units>  (56) 
nM

>  <standard_upper_value>  (56) 
nan

>  <standard_value>  (56) 
3981.07

>  <target_chembl_id>  (56) 
CHEMBL4121

>  <target_organism>  (56) 
Homo sapiens

>  <target_pref_name>  (56) 
CaM kinase II beta

>  <target_tax_id>  (56) 
9606

>  <text_value>  (56) 
nan

>  <toid>  (56) 
nan

>  <type>  (56) 
pKi

>  <units>  (56) 
nan

>  <uo_units>  (56) 
UO_0000065

>  <upper_value>  (56) 
nan

>  <value>  (56) 
5.4

>  <SMILES>  (56) 
Nc1ncnc2sc(Br)c(c3ccc(NC(=O)Cc4cccc(Cl)c4)cc3)c12

>  <NAME>  (56) 
CHEMBL1980896

>  <FILTER>  (56) 
OK

>  <MW>  (56) 
473.783

>  <LogP>  (56) 
5.5376

>  <HBD>  (56) 
2

>  <HBA>  (56) 
5

>  <TPSA>  (56) 
80.9

>  <Label>  (56) 
CAMK2B

$$$$
CHEMBL1970104
     RDKit          2D

 22 25  0  0  0  0  0  0  0  0999 V2000
    3.0000   -1.5000    0.0000 C   0  0  0  0  0  0  0  0  0  0  0  0
    3.0000    0.0000    0.0000 C   0  0  0  0  0  0  0  0  0  0  0  0
    3.0000    1.5000    0.0000 C   0  0  0  0  0  0  0  0  0  0  0  0
    4.5000    0.0000    0.0000 C   0  0  0  0  0  0  0  0  0  0  0  0
    1.5000    0.0000    0.0000 C   0  0  0  0  0  0  0  0  0  0  0  0
    0.7500   -1.2990    0.0000 C   0  0  0  0  0  0  0  0  0  0  0  0
   -0.7500   -1.2990    0.0000 C   0  0  0  0  0  0  0  0  0  0  0  0
   -1.5000    0.0000    0.0000 C   0  0  0  0  0  0  0  0  0  0  0  0
   -2.9672    0.3119    0.0000 N   0  0  0  0  0  0  0  0  0  0  0  0
   -3.1240    1.8037    0.0000 C   0  0  0  0  0  0  0  0  0  0  0  0
   -1.7537    2.4138    0.0000 N   0  0  0  0  0  0  0  0  0  0  0  0
   -0.7500    1.2990    0.0000 C   0  0  0  0  0  0  0  0  0  0  0  0
    0.7500    1.2990    0.0000 C   0  0  0  0  0  0  0  0  0  0  0  0
   -4.4231    2.5537    0.0000 C   0  0  0  0  0  0  0  0  0  0  0  0
   -4.5798    4.0454    0.0000 N   0  0  0  0  0  0  0  0  0  0  0  0
   -6.0471    4.3573    0.0000 N   0  0  0  0  0  0  0  0  0  0  0  0
   -6.7971    3.0583    0.0000 C   0  0  0  0  0  0  0  0  0  0  0  0
   -8.2643    2.7464    0.0000 C   0  0  0  0  0  0  0  0  0  0  0  0
   -8.7278    1.3198    0.0000 C   0  0  0  0  0  0  0  0  0  0  0  0
   -7.7241    0.2051    0.0000 C   0  0  0  0  0  0  0  0  0  0  0  0
   -6.2569    0.5170    0.0000 C   0  0  0  0  0  0  0  0  0  0  0  0
   -5.7934    1.9435    0.0000 C   0  0  0  0  0  0  0  0  0  0  0  0
  1  2  1  0
  2  3  1  0
  2  4  1  0
  2  5  1  0
  5  6  2  0
  6  7  1  0
  7  8  2  0
  8  9  1  0
  9 10  2  0
 10 11  1  0
 11 12  1  0
 12 13  2  0
 10 14  1  0
 14 15  2  0
 15 16  1  0
 16 17  1  0
 17 18  2  0
 18 19  1  0
 19 20  2  0
 20 21  1  0
 21 22  2  0
 13  5  1  0
 12  8  1  0
 22 14  1  0
 22 17  1  0
M  END
>  <activity_comment>  (57) 
active

>  <activity_id>  (57) 
9622468

>  <activity_properties>  (57) 
[]

>  <assay_chembl_id>  (57) 
CHEMBL1963787

>  <assay_description>  (57) 
PUBCHEM_BIOASSAY: Navigating the Kinome. (Class of assay: other) Panel member name: CAMK2B

>  <assay_type>  (57) 
F

>  <bao_endpoint>  (57) 
BAO_0000192

>  <bao_format>  (57) 
BAO_0000019

>  <bao_label>  (57) 
assay format

>  <canonical_smiles>  (57) 
CC(C)(C)c1ccc2nc([nH]c2c1)c3n[nH]c4ccccc34

>  <data_validity_comment>  (57) 
nan

>  <data_validity_description>  (57) 
nan

>  <document_chembl_id>  (57) 
CHEMBL1201862

>  <document_journal>  (57) 
nan

>  <document_year>  (57) 
nan

>  <ligand_efficiency>  (57) 
nan

>  <molecule_pref_name>  (57) 
nan

>  <parent_molecule_chembl_id>  (57) 
CHEMBL1970104

>  <pchembl_value>  (57) 
5.4

>  <potential_duplicate>  (57) 
False

>  <qudt_units>  (57) 
http://www.openphacts.org/units/Nanomolar

>  <record_id>  (57) 
1584786

>  <relation>  (57) 
=

>  <src_id>  (57) 
7

>  <standard_flag>  (57) 
True

>  <standard_relation>  (57) 
=

>  <standard_text_value>  (57) 
nan

>  <standard_type>  (57) 
Ki

>  <standard_units>  (57) 
nM

>  <standard_upper_value>  (57) 
nan

>  <standard_value>  (57) 
3981.07

>  <target_chembl_id>  (57) 
CHEMBL4121

>  <target_organism>  (57) 
Homo sapiens

>  <target_pref_name>  (57) 
CaM kinase II beta

>  <target_tax_id>  (57) 
9606

>  <text_value>  (57) 
nan

>  <toid>  (57) 
nan

>  <type>  (57) 
pKi

>  <units>  (57) 
nan

>  <uo_units>  (57) 
UO_0000065

>  <upper_value>  (57) 
nan

>  <value>  (57) 
5.4

>  <SMILES>  (57) 
CC(C)(C)c1ccc2nc([nH]c2c1)c3n[nH]c4ccccc34

>  <NAME>  (57) 
CHEMBL1970104

>  <FILTER>  (57) 
OK

>  <MW>  (57) 
290.37

>  <LogP>  (57) 
4.4037

>  <HBD>  (57) 
2

>  <HBA>  (57) 
2

>  <TPSA>  (57) 
57.36

>  <Label>  (57) 
CAMK2B

$$$$
CHEMBL1967302
     RDKit          2D

 30 34  0  0  0  0  0  0  0  0999 V2000
   -0.7500   -9.0933    0.0000 N   0  0  0  0  0  0  0  0  0  0  0  0
   -1.5000   -7.7942    0.0000 C   0  0  0  0  0  0  0  0  0  0  0  0
   -0.7500   -6.4952    0.0000 C   0  0  0  0  0  0  0  0  0  0  0  0
    0.7500   -6.4952    0.0000 O   0  0  0  0  0  0  0  0  0  0  0  0
    1.5000   -5.1962    0.0000 C   0  0  0  0  0  0  0  0  0  0  0  0
    3.0000   -5.1962    0.0000 C   0  0  0  0  0  0  0  0  0  0  0  0
    3.7500   -3.8971    0.0000 N   0  0  0  0  0  0  0  0  0  0  0  0
    3.0000   -2.5981    0.0000 C   0  0  0  0  0  0  0  0  0  0  0  0
    1.5000   -2.5981    0.0000 C   0  0  0  0  0  0  0  0  0  0  0  0
    0.7500   -3.8971    0.0000 C   0  0  0  0  0  0  0  0  0  0  0  0
    0.7500   -1.2990    0.0000 C   0  0  0  0  0  0  0  0  0  0  0  0
    1.5000    0.0000    0.0000 C   0  0  0  0  0  0  0  0  0  0  0  0
    0.7500    1.2990    0.0000 C   0  0  0  0  0  0  0  0  0  0  0  0
   -0.7500    1.2990    0.0000 C   0  0  0  0  0  0  0  0  0  0  0  0
   -1.7537    2.4138    0.0000 N   0  0  0  0  0  0  0  0  0  0  0  0
   -3.1240    1.8037    0.0000 C   0  0  0  0  0  0  0  0  0  0  0  0
   -4.4231    2.5537    0.0000 O   0  0  0  0  0  0  0  0  0  0  0  0
   -2.9672    0.3119    0.0000 C   0  0  0  0  0  0  0  0  0  0  0  0
   -1.5000    0.0000    0.0000 C   0  0  0  0  0  0  0  0  0  0  0  0
   -0.7500   -1.2990    0.0000 C   0  0  0  0  0  0  0  0  0  0  0  0
   -3.0000   -7.7942    0.0000 C   0  0  0  0  0  0  0  0  0  0  0  0
   -3.7500   -9.0933    0.0000 C   0  0  0  0  0  0  0  0  0  0  0  0
   -3.1399  -10.4636    0.0000 C   0  0  0  0  0  0  0  0  0  0  0  0
   -4.2546  -11.4673    0.0000 N   0  0  0  0  0  0  0  0  0  0  0  0
   -5.5537  -10.7173    0.0000 C   0  0  0  0  0  0  0  0  0  0  0  0
   -6.9802  -11.1808    0.0000 C   0  0  0  0  0  0  0  0  0  0  0  0
   -8.0950  -10.1771    0.0000 C   0  0  0  0  0  0  0  0  0  0  0  0
   -7.7831   -8.7099    0.0000 C   0  0  0  0  0  0  0  0  0  0  0  0
   -6.3565   -8.2464    0.0000 C   0  0  0  0  0  0  0  0  0  0  0  0
   -5.2418   -9.2501    0.0000 C   0  0  0  0  0  0  0  0  0  0  0  0
  1  2  1  0
  2  3  1  0
  3  4  1  0
  4  5  1  0
  5  6  2  0
  6  7  1  0
  7  8  2  0
  8  9  1  0
  9 10  2  0
  9 11  1  0
 11 12  2  0
 12 13  1  0
 13 14  2  0
 14 15  1  0
 15 16  1  0
 16 17  2  0
 16 18  1  0
 18 19  1  0
 19 20  2  0
  2 21  1  0
 21 22  1  0
 22 23  2  0
 23 24  1  0
 24 25  1  0
 25 26  2  0
 26 27  1  0
 27 28  2  0
 28 29  1  0
 29 30  2  0
 10  5  1  0
 20 11  1  0
 19 14  1  0
 30 22  1  0
 30 25  1  0
M  END
>  <activity_comment>  (58) 
active

>  <activity_id>  (58) 
9622475

>  <activity_properties>  (58) 
[]

>  <assay_chembl_id>  (58) 
CHEMBL1963787

>  <assay_description>  (58) 
PUBCHEM_BIOASSAY: Navigating the Kinome. (Class of assay: other) Panel member name: CAMK2B

>  <assay_type>  (58) 
F

>  <bao_endpoint>  (58) 
BAO_0000192

>  <bao_format>  (58) 
BAO_0000019

>  <bao_label>  (58) 
assay format

>  <canonical_smiles>  (58) 
NC(COc1cncc(c1)c2ccc3NC(=O)Cc3c2)Cc4c[nH]c5ccccc45

>  <data_validity_comment>  (58) 
nan

>  <data_validity_description>  (58) 
nan

>  <document_chembl_id>  (58) 
CHEMBL1201862

>  <document_journal>  (58) 
nan

>  <document_year>  (58) 
nan

>  <ligand_efficiency>  (58) 
nan

>  <molecule_pref_name>  (58) 
nan

>  <parent_molecule_chembl_id>  (58) 
CHEMBL1967302

>  <pchembl_value>  (58) 
5.1

>  <potential_duplicate>  (58) 
False

>  <qudt_units>  (58) 
http://www.openphacts.org/units/Nanomolar

>  <record_id>  (58) 
1584359

>  <relation>  (58) 
=

>  <src_id>  (58) 
7

>  <standard_flag>  (58) 
True

>  <standard_relation>  (58) 
=

>  <standard_text_value>  (58) 
nan

>  <standard_type>  (58) 
Ki

>  <standard_units>  (58) 
nM

>  <standard_upper_value>  (58) 
nan

>  <standard_value>  (58) 
7943.28

>  <target_chembl_id>  (58) 
CHEMBL4121

>  <target_organism>  (58) 
Homo sapiens

>  <target_pref_name>  (58) 
CaM kinase II beta

>  <target_tax_id>  (58) 
9606

>  <text_value>  (58) 
nan

>  <toid>  (58) 
nan

>  <type>  (58) 
pKi

>  <units>  (58) 
nan

>  <uo_units>  (58) 
UO_0000065

>  <upper_value>  (58) 
nan

>  <value>  (58) 
5.1

>  <SMILES>  (58) 
NC(COc1cncc(c1)c2ccc3NC(=O)Cc3c2)Cc4c[nH]c5ccccc45

>  <NAME>  (58) 
CHEMBL1967302

>  <FILTER>  (58) 
OK

>  <MW>  (58) 
398.466

>  <LogP>  (58) 
3.6733

>  <HBD>  (58) 
3

>  <HBA>  (58) 
4

>  <TPSA>  (58) 
93.03

>  <Label>  (58) 
CAMK2B

$$$$
CHEMBL2004716
     RDKit          2D

 39 42  0  0  0  0  0  0  0  0999 V2000
   -7.5275  -12.0000    0.0000 C   0  0  0  0  0  0  0  0  0  0  0  0
   -7.5275  -10.5000    0.0000 C   0  0  0  0  0  0  0  0  0  0  0  0
   -6.2284   -9.7500    0.0000 N   0  0  0  0  0  0  0  0  0  0  0  0
   -4.9294  -10.5000    0.0000 C   0  0  0  0  0  0  0  0  0  0  0  0
   -4.9294  -12.0000    0.0000 C   0  0  0  0  0  0  0  0  0  0  0  0
   -6.2284   -8.2500    0.0000 C   0  0  0  0  0  0  0  0  0  0  0  0
   -4.9294   -7.5000    0.0000 C   0  0  0  0  0  0  0  0  0  0  0  0
   -4.9294   -6.0000    0.0000 N   0  0  0  0  0  0  0  0  0  0  0  0
   -3.6304   -5.2500    0.0000 C   0  0  0  0  0  0  0  0  0  0  0  0
   -2.3313   -6.0000    0.0000 O   0  0  0  0  0  0  0  0  0  0  0  0
   -3.6304   -3.7500    0.0000 C   0  0  0  0  0  0  0  0  0  0  0  0
   -2.3313   -3.0000    0.0000 C   0  0  0  0  0  0  0  0  0  0  0  0
   -2.3313   -1.5000    0.0000 C   0  0  0  0  0  0  0  0  0  0  0  0
   -3.6304   -0.7500    0.0000 C   0  0  0  0  0  0  0  0  0  0  0  0
   -3.6304    0.7500    0.0000 N   0  0  0  0  0  0  0  0  0  0  0  0
   -2.3313    1.5000    0.0000 C   0  0  0  0  0  0  0  0  0  0  0  0
   -2.3313    3.0000    0.0000 N   0  0  0  0  0  0  0  0  0  0  0  0
   -1.0323    0.7500    0.0000 C   0  0  0  0  0  0  0  0  0  0  0  0
    0.3943    1.2135    0.0000 C   0  0  0  0  0  0  0  0  0  0  0  0
    1.2760    0.0000    0.0000 C   0  0  0  0  0  0  0  0  0  0  0  0
    0.3943   -1.2135    0.0000 S   0  0  0  0  0  0  0  0  0  0  0  0
   -1.0323   -0.7500    0.0000 C   0  0  0  0  0  0  0  0  0  0  0  0
    0.8578    2.6401    0.0000 C   0  0  0  0  0  0  0  0  0  0  0  0
    2.3250    2.9520    0.0000 C   0  0  0  0  0  0  0  0  0  0  0  0
    2.7886    4.3786    0.0000 C   0  0  0  0  0  0  0  0  0  0  0  0
    1.7849    5.4933    0.0000 C   0  0  0  0  0  0  0  0  0  0  0  0
    2.2484    6.9199    0.0000 N   0  0  0  0  0  0  0  0  0  0  0  0
    3.7156    7.2317    0.0000 C   0  0  0  0  0  0  0  0  0  0  0  0
    4.7193    6.1170    0.0000 O   0  0  0  0  0  0  0  0  0  0  0  0
    4.1791    8.6583    0.0000 N   0  0  0  0  0  0  0  0  0  0  0  0
    5.6464    8.9702    0.0000 C   0  0  0  0  0  0  0  0  0  0  0  0
    6.6501    7.8555    0.0000 C   0  0  0  0  0  0  0  0  0  0  0  0
    8.1173    8.1673    0.0000 C   0  0  0  0  0  0  0  0  0  0  0  0
    8.5808    9.5939    0.0000 C   0  0  0  0  0  0  0  0  0  0  0  0
    7.5771   10.7086    0.0000 C   0  0  0  0  0  0  0  0  0  0  0  0
    8.0406   12.1352    0.0000 C   0  0  0  0  0  0  0  0  0  0  0  0
    6.1099   10.3968    0.0000 C   0  0  0  0  0  0  0  0  0  0  0  0
    0.3177    5.1814    0.0000 C   0  0  0  0  0  0  0  0  0  0  0  0
   -0.1459    3.7548    0.0000 C   0  0  0  0  0  0  0  0  0  0  0  0
  1  2  1  0
  2  3  1  0
  3  4  1  0
  4  5  1  0
  3  6  1  0
  6  7  1  0
  7  8  1  0
  8  9  1  0
  9 10  2  0
  9 11  1  0
 11 12  2  3
 12 13  1  0
 13 14  2  0
 14 15  1  0
 15 16  2  0
 16 17  1  0
 16 18  1  0
 18 19  1  0
 19 20  2  0
 20 21  1  0
 21 22  1  0
 19 23  1  0
 23 24  2  0
 24 25  1  0
 25 26  2  0
 26 27  1  0
 27 28  1  0
 28 29  2  0
 28 30  1  0
 30 31  1  0
 31 32  2  0
 32 33  1  0
 33 34  2  0
 34 35  1  0
 35 36  1  0
 35 37  2  0
 26 38  1  0
 38 39  2  0
 22 13  1  0
 22 18  2  0
 39 23  1  0
 37 31  1  0
M  END
>  <activity_comment>  (59) 
active

>  <activity_id>  (59) 
9622478

>  <activity_properties>  (59) 
[]

>  <assay_chembl_id>  (59) 
CHEMBL1963787

>  <assay_description>  (59) 
PUBCHEM_BIOASSAY: Navigating the Kinome. (Class of assay: other) Panel member name: CAMK2B

>  <assay_type>  (59) 
F

>  <bao_endpoint>  (59) 
BAO_0000192

>  <bao_format>  (59) 
BAO_0000019

>  <bao_label>  (59) 
assay format

>  <canonical_smiles>  (59) 
CCN(CC)CCNC(=O)C=Cc1cnc(N)c2c(csc12)c3ccc(NC(=O)Nc4cccc(C)c4)cc3

>  <data_validity_comment>  (59) 
nan

>  <data_validity_description>  (59) 
nan

>  <document_chembl_id>  (59) 
CHEMBL1201862

>  <document_journal>  (59) 
nan

>  <document_year>  (59) 
nan

>  <ligand_efficiency>  (59) 
nan

>  <molecule_pref_name>  (59) 
nan

>  <parent_molecule_chembl_id>  (59) 
CHEMBL2004716

>  <pchembl_value>  (59) 
5.5

>  <potential_duplicate>  (59) 
False

>  <qudt_units>  (59) 
http://www.openphacts.org/units/Nanomolar

>  <record_id>  (59) 
1584202

>  <relation>  (59) 
=

>  <src_id>  (59) 
7

>  <standard_flag>  (59) 
True

>  <standard_relation>  (59) 
=

>  <standard_text_value>  (59) 
nan

>  <standard_type>  (59) 
Ki

>  <standard_units>  (59) 
nM

>  <standard_upper_value>  (59) 
nan

>  <standard_value>  (59) 
3162.28

>  <target_chembl_id>  (59) 
CHEMBL4121

>  <target_organism>  (59) 
Homo sapiens

>  <target_pref_name>  (59) 
CaM kinase II beta

>  <target_tax_id>  (59) 
9606

>  <text_value>  (59) 
nan

>  <toid>  (59) 
nan

>  <type>  (59) 
pKi

>  <units>  (59) 
nan

>  <uo_units>  (59) 
UO_0000065

>  <upper_value>  (59) 
nan

>  <value>  (59) 
5.5

>  <SMILES>  (59) 
CCN(CC)CCNC(=O)C=Cc1cnc(N)c2c(csc12)c3ccc(NC(=O)Nc4cccc(C)c4)cc3

>  <NAME>  (59) 
CHEMBL2004716

>  <FILTER>  (59) 
OK

>  <MW>  (59) 
542.709

>  <LogP>  (59) 
5.96912

>  <HBD>  (59) 
4

>  <HBA>  (59) 
6

>  <TPSA>  (59) 
112.38

>  <Label>  (59) 
CAMK2B

$$$$
CHEMBL1985406
     RDKit          2D

 23 25  0  0  0  0  0  0  0  0999 V2000
   -6.1170   -7.0506    0.0000 C   0  0  0  0  0  0  0  0  0  0  0  0
   -4.6904   -6.5871    0.0000 C   0  0  0  0  0  0  0  0  0  0  0  0
   -4.3786   -5.1199    0.0000 C   0  0  0  0  0  0  0  0  0  0  0  0
   -2.9520   -4.6564    0.0000 C   0  0  0  0  0  0  0  0  0  0  0  0
   -1.8373   -5.6601    0.0000 O   0  0  0  0  0  0  0  0  0  0  0  0
   -2.6401   -3.1891    0.0000 N   0  0  0  0  0  0  0  0  0  0  0  0
   -1.2135   -2.7256    0.0000 C   0  0  0  0  0  0  0  0  0  0  0  0
   -0.0000   -3.6073    0.0000 N   0  0  0  0  0  0  0  0  0  0  0  0
    1.2135   -2.7256    0.0000 N   0  0  0  0  0  0  0  0  0  0  0  0
    0.7500   -1.2990    0.0000 C   0  0  0  0  0  0  0  0  0  0  0  0
    1.5000    0.0000    0.0000 C   0  0  0  0  0  0  0  0  0  0  0  0
    0.7500    1.2990    0.0000 C   0  0  0  0  0  0  0  0  0  0  0  0
   -0.7500    1.2990    0.0000 C   0  0  0  0  0  0  0  0  0  0  0  0
   -1.5000    0.0000    0.0000 C   0  0  0  0  0  0  0  0  0  0  0  0
   -0.7500   -1.2990    0.0000 C   0  0  0  0  0  0  0  0  0  0  0  0
   -1.5000    2.5981    0.0000 C   0  0  0  0  0  0  0  0  0  0  0  0
   -0.7500    3.8971    0.0000 C   0  0  0  0  0  0  0  0  0  0  0  0
   -1.5000    5.1962    0.0000 C   0  0  0  0  0  0  0  0  0  0  0  0
   -3.0000    5.1962    0.0000 C   0  0  0  0  0  0  0  0  0  0  0  0
   -3.7500    3.8971    0.0000 C   0  0  0  0  0  0  0  0  0  0  0  0
   -5.2500    3.8971    0.0000 F   0  0  0  0  0  0  0  0  0  0  0  0
   -3.0000    2.5981    0.0000 C   0  0  0  0  0  0  0  0  0  0  0  0
   -3.7500    1.2990    0.0000 F   0  0  0  0  0  0  0  0  0  0  0  0
  1  2  1  0
  2  3  1  0
  3  4  1  0
  4  5  2  0
  4  6  1  0
  6  7  1  0
  7  8  2  0
  8  9  1  0
  9 10  1  0
 10 11  2  0
 11 12  1  0
 12 13  2  0
 13 14  1  0
 14 15  2  0
 13 16  1  0
 16 17  2  0
 17 18  1  0
 18 19  2  0
 19 20  1  0
 20 21  1  0
 20 22  2  0
 22 23  1  0
 15  7  1  0
 15 10  1  0
 22 16  1  0
M  END
>  <activity_comment>  (60) 
active

>  <activity_id>  (60) 
9622481

>  <activity_properties>  (60) 
[]

>  <assay_chembl_id>  (60) 
CHEMBL1963787

>  <assay_description>  (60) 
PUBCHEM_BIOASSAY: Navigating the Kinome. (Class of assay: other) Panel member name: CAMK2B

>  <assay_type>  (60) 
F

>  <bao_endpoint>  (60) 
BAO_0000192

>  <bao_format>  (60) 
BAO_0000019

>  <bao_label>  (60) 
assay format

>  <canonical_smiles>  (60) 
CCCC(=O)Nc1n[nH]c2ccc(cc12)c3cccc(F)c3F

>  <data_validity_comment>  (60) 
nan

>  <data_validity_description>  (60) 
nan

>  <document_chembl_id>  (60) 
CHEMBL1201862

>  <document_journal>  (60) 
nan

>  <document_year>  (60) 
nan

>  <ligand_efficiency>  (60) 
nan

>  <molecule_pref_name>  (60) 
nan

>  <parent_molecule_chembl_id>  (60) 
CHEMBL1985406

>  <pchembl_value>  (60) 
5.4

>  <potential_duplicate>  (60) 
False

>  <qudt_units>  (60) 
http://www.openphacts.org/units/Nanomolar

>  <record_id>  (60) 
1584918

>  <relation>  (60) 
=

>  <src_id>  (60) 
7

>  <standard_flag>  (60) 
True

>  <standard_relation>  (60) 
=

>  <standard_text_value>  (60) 
nan

>  <standard_type>  (60) 
Ki

>  <standard_units>  (60) 
nM

>  <standard_upper_value>  (60) 
nan

>  <standard_value>  (60) 
3981.07

>  <target_chembl_id>  (60) 
CHEMBL4121

>  <target_organism>  (60) 
Homo sapiens

>  <target_pref_name>  (60) 
CaM kinase II beta

>  <target_tax_id>  (60) 
9606

>  <text_value>  (60) 
nan

>  <toid>  (60) 
nan

>  <type>  (60) 
pKi

>  <units>  (60) 
nan

>  <uo_units>  (60) 
UO_0000065

>  <upper_value>  (60) 
nan

>  <value>  (60) 
5.4

>  <SMILES>  (60) 
CCCC(=O)Nc1n[nH]c2ccc(cc12)c3cccc(F)c3F

>  <NAME>  (60) 
CHEMBL1985406

>  <FILTER>  (60) 
OK

>  <MW>  (60) 
315.323

>  <LogP>  (60) 
4.2467

>  <HBD>  (60) 
2

>  <HBA>  (60) 
2

>  <TPSA>  (60) 
57.78

>  <Label>  (60) 
CAMK2B

$$$$
CHEMBL2000894
     RDKit          2D

 29 32  0  0  0  0  0  0  0  0999 V2000
   -3.0000   -5.1962    0.0000 C   0  0  0  0  0  0  0  0  0  0  0  0
   -3.7500   -3.8971    0.0000 C   0  0  0  0  0  0  0  0  0  0  0  0
   -5.2500   -3.8971    0.0000 C   0  0  0  0  0  0  0  0  0  0  0  0
   -6.0000   -2.5981    0.0000 C   0  0  0  0  0  0  0  0  0  0  0  0
   -7.5000   -2.5981    0.0000 O   0  0  0  0  0  0  0  0  0  0  0  0
   -5.2500   -1.2990    0.0000 C   0  0  0  0  0  0  0  0  0  0  0  0
   -3.7500   -1.2990    0.0000 C   0  0  0  0  0  0  0  0  0  0  0  0
   -3.0000   -2.5981    0.0000 C   0  0  0  0  0  0  0  0  0  0  0  0
   -1.5000   -2.5981    0.0000 N   0  0  0  0  0  0  0  0  0  0  0  0
   -0.7500   -3.8971    0.0000 C   0  0  0  0  0  0  0  0  0  0  0  0
    0.7500   -3.8971    0.0000 C   0  0  0  0  0  0  0  0  0  0  0  0
    1.5000   -5.1962    0.0000 C   0  0  0  0  0  0  0  0  0  0  0  0
    3.0000   -5.1962    0.0000 O   0  0  0  0  0  0  0  0  0  0  0  0
    0.7500   -6.4952    0.0000 N   0  0  0  0  0  0  0  0  0  0  0  0
    1.5000   -7.7942    0.0000 N   0  0  0  0  0  0  0  0  0  0  0  0
    1.5000   -2.5981    0.0000 C   0  0  0  0  0  0  0  0  0  0  0  0
    3.0000   -2.5981    0.0000 O   0  0  0  0  0  0  0  0  0  0  0  0
    0.7500   -1.2990    0.0000 C   0  0  0  0  0  0  0  0  0  0  0  0
    1.5000    0.0000    0.0000 C   0  0  0  0  0  0  0  0  0  0  0  0
    0.7500    1.2990    0.0000 C   0  0  0  0  0  0  0  0  0  0  0  0
   -0.7500    1.2990    0.0000 C   0  0  0  0  0  0  0  0  0  0  0  0
   -1.5000    0.0000    0.0000 C   0  0  0  0  0  0  0  0  0  0  0  0
   -0.7500   -1.2990    0.0000 C   0  0  0  0  0  0  0  0  0  0  0  0
   -1.5000    2.5981    0.0000 C   0  0  0  0  0  0  0  0  0  0  0  0
   -0.7500    3.8971    0.0000 C   0  0  0  0  0  0  0  0  0  0  0  0
   -1.5000    5.1962    0.0000 C   0  0  0  0  0  0  0  0  0  0  0  0
   -3.0000    5.1962    0.0000 N   0  0  0  0  0  0  0  0  0  0  0  0
   -3.7500    3.8971    0.0000 C   0  0  0  0  0  0  0  0  0  0  0  0
   -3.0000    2.5981    0.0000 C   0  0  0  0  0  0  0  0  0  0  0  0
  1  2  1  0
  2  3  2  0
  3  4  1  0
  4  5  1  0
  4  6  2  0
  6  7  1  0
  7  8  2  0
  8  9  1  0
  9 10  1  0
 10 11  2  0
 11 12  1  0
 12 13  2  0
 12 14  1  0
 14 15  1  0
 11 16  1  0
 16 17  2  0
 16 18  1  0
 18 19  2  0
 19 20  1  0
 20 21  2  0
 21 22  1  0
 22 23  2  0
 21 24  1  0
 24 25  2  0
 25 26  1  0
 26 27  2  0
 27 28  1  0
 28 29  2  0
  8  2  1  0
 23  9  1  0
 23 18  1  0
 29 24  1  0
M  END
>  <activity_comment>  (61) 
active

>  <activity_id>  (61) 
9622483

>  <activity_properties>  (61) 
[]

>  <assay_chembl_id>  (61) 
CHEMBL1963787

>  <assay_description>  (61) 
PUBCHEM_BIOASSAY: Navigating the Kinome. (Class of assay: other) Panel member name: CAMK2B

>  <assay_type>  (61) 
F

>  <bao_endpoint>  (61) 
BAO_0000192

>  <bao_format>  (61) 
BAO_0000019

>  <bao_label>  (61) 
assay format

>  <canonical_smiles>  (61) 
Cc1cc(O)ccc1N2C=C(C(=O)NN)C(=O)c3ccc(cc23)c4ccncc4

>  <data_validity_comment>  (61) 
nan

>  <data_validity_description>  (61) 
nan

>  <document_chembl_id>  (61) 
CHEMBL1201862

>  <document_journal>  (61) 
nan

>  <document_year>  (61) 
nan

>  <ligand_efficiency>  (61) 
nan

>  <molecule_pref_name>  (61) 
nan

>  <parent_molecule_chembl_id>  (61) 
CHEMBL2000894

>  <pchembl_value>  (61) 
5.2

>  <potential_duplicate>  (61) 
False

>  <qudt_units>  (61) 
http://www.openphacts.org/units/Nanomolar

>  <record_id>  (61) 
1585237

>  <relation>  (61) 
=

>  <src_id>  (61) 
7

>  <standard_flag>  (61) 
True

>  <standard_relation>  (61) 
=

>  <standard_text_value>  (61) 
nan

>  <standard_type>  (61) 
Ki

>  <standard_units>  (61) 
nM

>  <standard_upper_value>  (61) 
nan

>  <standard_value>  (61) 
6309.57

>  <target_chembl_id>  (61) 
CHEMBL4121

>  <target_organism>  (61) 
Homo sapiens

>  <target_pref_name>  (61) 
CaM kinase II beta

>  <target_tax_id>  (61) 
9606

>  <text_value>  (61) 
nan

>  <toid>  (61) 
nan

>  <type>  (61) 
pKi

>  <units>  (61) 
nan

>  <uo_units>  (61) 
UO_0000065

>  <upper_value>  (61) 
nan

>  <value>  (61) 
5.2

>  <SMILES>  (61) 
Cc1cc(O)ccc1N2C=C(C(=O)NN)C(=O)c3ccc(cc23)c4ccncc4

>  <NAME>  (61) 
CHEMBL2000894

>  <FILTER>  (61) 
OK

>  <MW>  (61) 
386.411

>  <LogP>  (61) 
2.67022

>  <HBD>  (61) 
3

>  <HBA>  (61) 
6

>  <TPSA>  (61) 
110.24

>  <Label>  (61) 
CAMK2B

$$$$
CHEMBL1976090
     RDKit          2D

 15 17  0  0  0  0  0  0  0  0999 V2000
    3.0000    0.0000    0.0000 N   0  0  0  0  0  0  0  0  0  0  0  0
    1.5000    0.0000    0.0000 C   0  0  0  0  0  0  0  0  0  0  0  0
    0.7500   -1.2990    0.0000 N   0  0  0  0  0  0  0  0  0  0  0  0
   -0.7500   -1.2990    0.0000 C   0  0  0  0  0  0  0  0  0  0  0  0
   -1.5000    0.0000    0.0000 N   0  0  0  0  0  0  0  0  0  0  0  0
   -0.7500    1.2990    0.0000 C   0  0  0  0  0  0  0  0  0  0  0  0
    0.7500    1.2990    0.0000 C   0  0  0  0  0  0  0  0  0  0  0  0
    1.2135    2.7256    0.0000 S   0  0  0  0  0  0  0  0  0  0  0  0
    0.0000    3.6073    0.0000 C   0  0  0  0  0  0  0  0  0  0  0  0
   -0.1568    5.0991    0.0000 N   0  0  0  0  0  0  0  0  0  0  0  0
   -1.5271    5.7092    0.0000 C   0  0  0  0  0  0  0  0  0  0  0  0
   -2.7406    4.8275    0.0000 N   0  0  0  0  0  0  0  0  0  0  0  0
   -2.5838    3.3357    0.0000 C   0  0  0  0  0  0  0  0  0  0  0  0
   -3.7974    2.4540    0.0000 N   0  0  0  0  0  0  0  0  0  0  0  0
   -1.2135    2.7256    0.0000 C   0  0  0  0  0  0  0  0  0  0  0  0
  1  2  1  0
  2  3  2  0
  3  4  1  0
  4  5  2  0
  5  6  1  0
  6  7  2  0
  7  8  1  0
  8  9  1  0
  9 10  2  0
 10 11  1  0
 11 12  2  0
 12 13  1  0
 13 14  1  0
 13 15  2  0
  7  2  1  0
 15  6  1  0
 15  9  1  0
M  END
>  <activity_comment>  (62) 
active

>  <activity_id>  (62) 
9622485

>  <activity_properties>  (62) 
[]

>  <assay_chembl_id>  (62) 
CHEMBL1963787

>  <assay_description>  (62) 
PUBCHEM_BIOASSAY: Navigating the Kinome. (Class of assay: other) Panel member name: CAMK2B

>  <assay_type>  (62) 
F

>  <bao_endpoint>  (62) 
BAO_0000192

>  <bao_format>  (62) 
BAO_0000019

>  <bao_label>  (62) 
assay format

>  <canonical_smiles>  (62) 
Nc1ncnc2c1sc3ncnc(N)c23

>  <data_validity_comment>  (62) 
nan

>  <data_validity_description>  (62) 
nan

>  <document_chembl_id>  (62) 
CHEMBL1201862

>  <document_journal>  (62) 
nan

>  <document_year>  (62) 
nan

>  <ligand_efficiency>  (62) 
nan

>  <molecule_pref_name>  (62) 
nan

>  <parent_molecule_chembl_id>  (62) 
CHEMBL1976090

>  <pchembl_value>  (62) 
5.4

>  <potential_duplicate>  (62) 
False

>  <qudt_units>  (62) 
http://www.openphacts.org/units/Nanomolar

>  <record_id>  (62) 
1585166

>  <relation>  (62) 
=

>  <src_id>  (62) 
7

>  <standard_flag>  (62) 
True

>  <standard_relation>  (62) 
=

>  <standard_text_value>  (62) 
nan

>  <standard_type>  (62) 
Ki

>  <standard_units>  (62) 
nM

>  <standard_upper_value>  (62) 
nan

>  <standard_value>  (62) 
3981.07

>  <target_chembl_id>  (62) 
CHEMBL4121

>  <target_organism>  (62) 
Homo sapiens

>  <target_pref_name>  (62) 
CaM kinase II beta

>  <target_tax_id>  (62) 
9606

>  <text_value>  (62) 
nan

>  <toid>  (62) 
nan

>  <type>  (62) 
pKi

>  <units>  (62) 
nan

>  <uo_units>  (62) 
UO_0000065

>  <upper_value>  (62) 
nan

>  <value>  (62) 
5.4

>  <SMILES>  (62) 
Nc1ncnc2c1sc3ncnc(N)c23

>  <NAME>  (62) 
CHEMBL1976090

>  <FILTER>  (62) 
OK

>  <MW>  (62) 
218.245

>  <LogP>  (62) 
0.7989

>  <HBD>  (62) 
2

>  <HBA>  (62) 
7

>  <TPSA>  (62) 
103.6

>  <Label>  (62) 
CAMK2B

$$$$
CHEMBL1992922
     RDKit          2D

 21 23  0  0  0  0  0  0  0  0999 V2000
    6.0000   -2.5981    0.0000 O   0  0  0  0  0  0  0  0  0  0  0  0
    5.2500   -1.2990    0.0000 C   0  0  0  0  0  0  0  0  0  0  0  0
    3.7500   -1.2990    0.0000 C   0  0  0  0  0  0  0  0  0  0  0  0
    3.0000   -2.5981    0.0000 C   0  0  0  0  0  0  0  0  0  0  0  0
    3.7500   -3.8971    0.0000 O   0  0  0  0  0  0  0  0  0  0  0  0
    3.0000    0.0000    0.0000 N   0  0  0  0  0  0  0  0  0  0  0  0
    1.5000    0.0000    0.0000 C   0  0  0  0  0  0  0  0  0  0  0  0
    0.7500   -1.2990    0.0000 N   0  0  0  0  0  0  0  0  0  0  0  0
   -0.7500   -1.2990    0.0000 C   0  0  0  0  0  0  0  0  0  0  0  0
   -1.5000    0.0000    0.0000 N   0  0  0  0  0  0  0  0  0  0  0  0
   -0.7500    1.2990    0.0000 C   0  0  0  0  0  0  0  0  0  0  0  0
   -1.2135    2.7256    0.0000 N   0  0  0  0  0  0  0  0  0  0  0  0
   -0.0000    3.6073    0.0000 C   0  0  0  0  0  0  0  0  0  0  0  0
    1.2135    2.7256    0.0000 C   0  0  0  0  0  0  0  0  0  0  0  0
    2.6401    3.1891    0.0000 C   0  0  0  0  0  0  0  0  0  0  0  0
    3.7548    2.1855    0.0000 C   0  0  0  0  0  0  0  0  0  0  0  0
    5.1814    2.6490    0.0000 C   0  0  0  0  0  0  0  0  0  0  0  0
    5.4933    4.1162    0.0000 C   0  0  0  0  0  0  0  0  0  0  0  0
    4.3786    5.1199    0.0000 C   0  0  0  0  0  0  0  0  0  0  0  0
    2.9520    4.6564    0.0000 C   0  0  0  0  0  0  0  0  0  0  0  0
    0.7500    1.2990    0.0000 C   0  0  0  0  0  0  0  0  0  0  0  0
  1  2  1  0
  2  3  1  0
  3  4  1  0
  4  5  1  0
  3  6  1  0
  6  7  1  0
  7  8  2  0
  8  9  1  0
  9 10  2  0
 10 11  1  0
 11 12  1  0
 12 13  1  0
 13 14  2  0
 14 15  1  0
 15 16  2  0
 16 17  1  0
 17 18  2  0
 18 19  1  0
 19 20  2  0
 14 21  1  0
 21  7  1  0
 21 11  2  0
 20 15  1  0
M  END
>  <activity_comment>  (63) 
active

>  <activity_id>  (63) 
9622487

>  <activity_properties>  (63) 
[]

>  <assay_chembl_id>  (63) 
CHEMBL1963787

>  <assay_description>  (63) 
PUBCHEM_BIOASSAY: Navigating the Kinome. (Class of assay: other) Panel member name: CAMK2B

>  <assay_type>  (63) 
F

>  <bao_endpoint>  (63) 
BAO_0000192

>  <bao_format>  (63) 
BAO_0000019

>  <bao_label>  (63) 
assay format

>  <canonical_smiles>  (63) 
OCC(CO)Nc1ncnc2[nH]cc(c3ccccc3)c12

>  <data_validity_comment>  (63) 
nan

>  <data_validity_description>  (63) 
nan

>  <document_chembl_id>  (63) 
CHEMBL1201862

>  <document_journal>  (63) 
nan

>  <document_year>  (63) 
nan

>  <ligand_efficiency>  (63) 
nan

>  <molecule_pref_name>  (63) 
nan

>  <parent_molecule_chembl_id>  (63) 
CHEMBL1992922

>  <pchembl_value>  (63) 
5.8

>  <potential_duplicate>  (63) 
False

>  <qudt_units>  (63) 
http://www.openphacts.org/units/Nanomolar

>  <record_id>  (63) 
1584091

>  <relation>  (63) 
=

>  <src_id>  (63) 
7

>  <standard_flag>  (63) 
True

>  <standard_relation>  (63) 
=

>  <standard_text_value>  (63) 
nan

>  <standard_type>  (63) 
Ki

>  <standard_units>  (63) 
nM

>  <standard_upper_value>  (63) 
nan

>  <standard_value>  (63) 
1584.89

>  <target_chembl_id>  (63) 
CHEMBL4121

>  <target_organism>  (63) 
Homo sapiens

>  <target_pref_name>  (63) 
CaM kinase II beta

>  <target_tax_id>  (63) 
9606

>  <text_value>  (63) 
nan

>  <toid>  (63) 
nan

>  <type>  (63) 
pKi

>  <units>  (63) 
nan

>  <uo_units>  (63) 
UO_0000065

>  <upper_value>  (63) 
nan

>  <value>  (63) 
5.8

>  <SMILES>  (63) 
OCC(CO)Nc1ncnc2[nH]cc(c3ccccc3)c12

>  <NAME>  (63) 
CHEMBL1992922

>  <FILTER>  (63) 
OK

>  <MW>  (63) 
284.319

>  <LogP>  (63) 
1.39

>  <HBD>  (63) 
4

>  <HBA>  (63) 
5

>  <TPSA>  (63) 
94.06

>  <Label>  (63) 
CAMK2B

$$$$
CHEMBL2004771
     RDKit          2D

 26 30  0  0  0  0  0  0  0  0999 V2000
    2.6401   -3.1891    0.0000 O   0  0  0  0  0  0  0  0  0  0  0  0
    1.2135   -2.7256    0.0000 C   0  0  0  0  0  0  0  0  0  0  0  0
   -0.0000   -3.6073    0.0000 N   0  0  0  0  0  0  0  0  0  0  0  0
   -1.2135   -2.7256    0.0000 C   0  0  0  0  0  0  0  0  0  0  0  0
   -0.7500   -1.2990    0.0000 C   0  0  0  0  0  0  0  0  0  0  0  0
    0.7500   -1.2990    0.0000 C   0  0  0  0  0  0  0  0  0  0  0  0
    1.5000    0.0000    0.0000 C   0  0  0  0  0  0  0  0  0  0  0  0
    0.7500    1.2990    0.0000 C   0  0  0  0  0  0  0  0  0  0  0  0
   -0.7500    1.2990    0.0000 C   0  0  0  0  0  0  0  0  0  0  0  0
   -1.5000    0.0000    0.0000 C   0  0  0  0  0  0  0  0  0  0  0  0
   -3.0000    0.0000    0.0000 C   0  0  0  0  0  0  0  0  0  0  0  0
   -3.7500    1.2990    0.0000 C   0  0  0  0  0  0  0  0  0  0  0  0
   -5.2500    1.2990    0.0000 C   0  0  0  0  0  0  0  0  0  0  0  0
   -6.0000    0.0000    0.0000 C   0  0  0  0  0  0  0  0  0  0  0  0
   -7.5000    0.0000    0.0000 N   0  0  0  0  0  0  0  0  0  0  0  0
   -8.2500    1.2990    0.0000 C   0  0  0  0  0  0  0  0  0  0  0  0
   -7.6399    2.6694    0.0000 O   0  0  0  0  0  0  0  0  0  0  0  0
   -8.7546    3.6731    0.0000 C   0  0  0  0  0  0  0  0  0  0  0  0
   -8.7546    5.1731    0.0000 C   0  0  0  0  0  0  0  0  0  0  0  0
  -10.0537    5.9231    0.0000 C   0  0  0  0  0  0  0  0  0  0  0  0
  -11.3527    5.1731    0.0000 C   0  0  0  0  0  0  0  0  0  0  0  0
  -11.3527    3.6731    0.0000 C   0  0  0  0  0  0  0  0  0  0  0  0
  -10.0537    2.9231    0.0000 C   0  0  0  0  0  0  0  0  0  0  0  0
   -9.7418    1.4558    0.0000 N   0  0  0  0  0  0  0  0  0  0  0  0
   -5.2500   -1.2990    0.0000 C   0  0  0  0  0  0  0  0  0  0  0  0
   -3.7500   -1.2990    0.0000 C   0  0  0  0  0  0  0  0  0  0  0  0
  1  2  2  0
  2  3  1  0
  3  4  1  0
  4  5  1  0
  5  6  2  0
  6  7  1  0
  7  8  2  0
  8  9  1  0
  9 10  2  0
 10 11  1  0
 11 12  2  0
 12 13  1  0
 13 14  2  0
 14 15  1  0
 15 16  1  0
 16 17  1  0
 17 18  1  0
 18 19  2  0
 19 20  1  0
 20 21  2  0
 21 22  1  0
 22 23  2  0
 23 24  1  0
 14 25  1  0
 25 26  2  0
  6  2  1  0
 10  5  1  0
 26 11  1  0
 24 16  2  0
 23 18  1  0
M  END
>  <activity_comment>  (64) 
active

>  <activity_id>  (64) 
9622488

>  <activity_properties>  (64) 
[]

>  <assay_chembl_id>  (64) 
CHEMBL1963787

>  <assay_description>  (64) 
PUBCHEM_BIOASSAY: Navigating the Kinome. (Class of assay: other) Panel member name: CAMK2B

>  <assay_type>  (64) 
F

>  <bao_endpoint>  (64) 
BAO_0000192

>  <bao_format>  (64) 
BAO_0000019

>  <bao_label>  (64) 
assay format

>  <canonical_smiles>  (64) 
O=C1NCc2c1cccc2c3ccc(Nc4oc5ccccc5n4)cc3

>  <data_validity_comment>  (64) 
nan

>  <data_validity_description>  (64) 
nan

>  <document_chembl_id>  (64) 
CHEMBL1201862

>  <document_journal>  (64) 
nan

>  <document_year>  (64) 
nan

>  <ligand_efficiency>  (64) 
nan

>  <molecule_pref_name>  (64) 
nan

>  <parent_molecule_chembl_id>  (64) 
CHEMBL2004771

>  <pchembl_value>  (64) 
5.1

>  <potential_duplicate>  (64) 
False

>  <qudt_units>  (64) 
http://www.openphacts.org/units/Nanomolar

>  <record_id>  (64) 
1584533

>  <relation>  (64) 
=

>  <src_id>  (64) 
7

>  <standard_flag>  (64) 
True

>  <standard_relation>  (64) 
=

>  <standard_text_value>  (64) 
nan

>  <standard_type>  (64) 
Ki

>  <standard_units>  (64) 
nM

>  <standard_upper_value>  (64) 
nan

>  <standard_value>  (64) 
7943.28

>  <target_chembl_id>  (64) 
CHEMBL4121

>  <target_organism>  (64) 
Homo sapiens

>  <target_pref_name>  (64) 
CaM kinase II beta

>  <target_tax_id>  (64) 
9606

>  <text_value>  (64) 
nan

>  <toid>  (64) 
nan

>  <type>  (64) 
pKi

>  <units>  (64) 
nan

>  <uo_units>  (64) 
UO_0000065

>  <upper_value>  (64) 
nan

>  <value>  (64) 
5.1

>  <SMILES>  (64) 
O=C1NCc2c1cccc2c3ccc(Nc4oc5ccccc5n4)cc3

>  <NAME>  (64) 
CHEMBL2004771

>  <FILTER>  (64) 
OK

>  <MW>  (64) 
341.37

>  <LogP>  (64) 
4.4818

>  <HBD>  (64) 
2

>  <HBA>  (64) 
4

>  <TPSA>  (64) 
67.16

>  <Label>  (64) 
CAMK2B

$$$$
CHEMBL508928
     RDKit          2D

 33 37  0  0  0  0  0  0  0  0999 V2000
  -16.6207   -3.7500    0.0000 C   0  0  0  0  0  0  0  0  0  0  0  0
  -15.3217   -3.0000    0.0000 C   0  0  0  0  0  0  0  0  0  0  0  0
  -15.3217   -1.5000    0.0000 C   0  0  0  0  0  0  0  0  0  0  0  0
  -14.0227   -0.7500    0.0000 C   0  0  0  0  0  0  0  0  0  0  0  0
  -12.7236   -1.5000    0.0000 C   0  0  0  0  0  0  0  0  0  0  0  0
  -12.7236   -3.0000    0.0000 C   0  0  0  0  0  0  0  0  0  0  0  0
  -11.4246   -3.7500    0.0000 N   0  0  0  0  0  0  0  0  0  0  0  0
  -10.1256   -3.0000    0.0000 C   0  0  0  0  0  0  0  0  0  0  0  0
  -10.1256   -1.5000    0.0000 O   0  0  0  0  0  0  0  0  0  0  0  0
   -8.8265   -3.7500    0.0000 N   0  0  0  0  0  0  0  0  0  0  0  0
   -7.5275   -3.0000    0.0000 C   0  0  0  0  0  0  0  0  0  0  0  0
   -6.2284   -3.7500    0.0000 C   0  0  0  0  0  0  0  0  0  0  0  0
   -4.9294   -3.0000    0.0000 C   0  0  0  0  0  0  0  0  0  0  0  0
   -4.9294   -1.5000    0.0000 C   0  0  0  0  0  0  0  0  0  0  0  0
   -6.2284   -0.7500    0.0000 C   0  0  0  0  0  0  0  0  0  0  0  0
   -7.5275   -1.5000    0.0000 C   0  0  0  0  0  0  0  0  0  0  0  0
   -3.6304   -0.7500    0.0000 C   0  0  0  0  0  0  0  0  0  0  0  0
   -3.6304    0.7500    0.0000 C   0  0  0  0  0  0  0  0  0  0  0  0
   -2.3313    1.5000    0.0000 N   0  0  0  0  0  0  0  0  0  0  0  0
   -1.0323    0.7500    0.0000 C   0  0  0  0  0  0  0  0  0  0  0  0
    0.3943    1.2135    0.0000 C   0  0  0  0  0  0  0  0  0  0  0  0
    1.2760    0.0000    0.0000 C   0  0  0  0  0  0  0  0  0  0  0  0
    0.3943   -1.2135    0.0000 N   0  0  0  0  0  0  0  0  0  0  0  0
   -1.0323   -0.7500    0.0000 N   0  0  0  0  0  0  0  0  0  0  0  0
   -2.3313   -1.5000    0.0000 C   0  0  0  0  0  0  0  0  0  0  0  0
   -2.3313   -3.0000    0.0000 N   0  0  0  0  0  0  0  0  0  0  0  0
    0.8578    2.6401    0.0000 C   0  0  0  0  0  0  0  0  0  0  0  0
   -0.0239    3.8536    0.0000 C   0  0  0  0  0  0  0  0  0  0  0  0
    0.8578    5.0672    0.0000 N   0  0  0  0  0  0  0  0  0  0  0  0
    2.2844    4.6036    0.0000 N   0  0  0  0  0  0  0  0  0  0  0  0
    3.4979    5.4853    0.0000 C   0  0  0  0  0  0  0  0  0  0  0  0
    2.2844    3.1036    0.0000 C   0  0  0  0  0  0  0  0  0  0  0  0
  -14.0227   -3.7500    0.0000 C   0  0  0  0  0  0  0  0  0  0  0  0
  1  2  1  0
  2  3  2  0
  3  4  1  0
  4  5  2  0
  5  6  1  0
  6  7  1  0
  7  8  1  0
  8  9  2  0
  8 10  1  0
 10 11  1  0
 11 12  2  0
 12 13  1  0
 13 14  2  0
 14 15  1  0
 15 16  2  0
 14 17  1  0
 17 18  1  0
 18 19  2  0
 19 20  1  0
 20 21  2  0
 21 22  1  0
 22 23  2  0
 23 24  1  0
 24 25  1  0
 25 26  1  0
 21 27  1  0
 27 28  1  0
 28 29  2  0
 29 30  1  0
 30 31  1  0
 30 32  1  0
  6 33  2  0
 33  2  1  0
 16 11  1  0
 25 17  2  0
 24 20  1  0
 32 27  2  0
M  END
>  <activity_comment>  (65) 
active

>  <activity_id>  (65) 
9622494

>  <activity_properties>  (65) 
[]

>  <assay_chembl_id>  (65) 
CHEMBL1963787

>  <assay_description>  (65) 
PUBCHEM_BIOASSAY: Navigating the Kinome. (Class of assay: other) Panel member name: CAMK2B

>  <assay_type>  (65) 
F

>  <bao_endpoint>  (65) 
BAO_0000192

>  <bao_format>  (65) 
BAO_0000019

>  <bao_label>  (65) 
assay format

>  <canonical_smiles>  (65) 
Cc1cccc(NC(=O)Nc2ccc(cc2)c3cnc4c(cnn4c3N)c5cnn(C)c5)c1

>  <data_validity_comment>  (65) 
nan

>  <data_validity_description>  (65) 
nan

>  <document_chembl_id>  (65) 
CHEMBL1201862

>  <document_journal>  (65) 
nan

>  <document_year>  (65) 
nan

>  <ligand_efficiency>  (65) 
nan

>  <molecule_pref_name>  (65) 
nan

>  <parent_molecule_chembl_id>  (65) 
CHEMBL508928

>  <pchembl_value>  (65) 
5.1

>  <potential_duplicate>  (65) 
False

>  <qudt_units>  (65) 
http://www.openphacts.org/units/Nanomolar

>  <record_id>  (65) 
1584170

>  <relation>  (65) 
=

>  <src_id>  (65) 
7

>  <standard_flag>  (65) 
True

>  <standard_relation>  (65) 
=

>  <standard_text_value>  (65) 
nan

>  <standard_type>  (65) 
Ki

>  <standard_units>  (65) 
nM

>  <standard_upper_value>  (65) 
nan

>  <standard_value>  (65) 
7943.28

>  <target_chembl_id>  (65) 
CHEMBL4121

>  <target_organism>  (65) 
Homo sapiens

>  <target_pref_name>  (65) 
CaM kinase II beta

>  <target_tax_id>  (65) 
9606

>  <text_value>  (65) 
nan

>  <toid>  (65) 
nan

>  <type>  (65) 
pKi

>  <units>  (65) 
nan

>  <uo_units>  (65) 
UO_0000065

>  <upper_value>  (65) 
nan

>  <value>  (65) 
5.1

>  <SMILES>  (65) 
Cc1cccc(NC(=O)Nc2ccc(cc2)c3cnc4c(cnn4c3N)c5cnn(C)c5)c1

>  <NAME>  (65) 
CHEMBL508928

>  <FILTER>  (65) 
OK

>  <MW>  (65) 
438.495

>  <LogP>  (65) 
4.33142

>  <HBD>  (65) 
3

>  <HBA>  (65) 
7

>  <TPSA>  (65) 
115.16

>  <Label>  (65) 
CAMK2B

$$$$
CHEMBL2004892
     RDKit          2D

 21 23  0  0  0  0  0  0  0  0999 V2000
    2.2500   -9.0933    0.0000 C   0  0  0  0  0  0  0  0  0  0  0  0
    3.0000   -7.7942    0.0000 S   0  0  0  0  0  0  0  0  0  0  0  0
    1.7010   -7.0442    0.0000 O   0  0  0  0  0  0  0  0  0  0  0  0
    4.2990   -8.5442    0.0000 O   0  0  0  0  0  0  0  0  0  0  0  0
    3.7500   -6.4952    0.0000 N   0  0  0  0  0  0  0  0  0  0  0  0
    3.0000   -5.1962    0.0000 C   0  0  0  0  0  0  0  0  0  0  0  0
    1.5000   -5.1962    0.0000 C   0  0  0  0  0  0  0  0  0  0  0  0
    0.7500   -3.8971    0.0000 C   0  0  0  0  0  0  0  0  0  0  0  0
    1.5000   -2.5981    0.0000 C   0  0  0  0  0  0  0  0  0  0  0  0
    3.0000   -2.5981    0.0000 C   0  0  0  0  0  0  0  0  0  0  0  0
    3.7500   -3.8971    0.0000 C   0  0  0  0  0  0  0  0  0  0  0  0
    0.7500   -1.2990    0.0000 C   0  0  0  0  0  0  0  0  0  0  0  0
    1.5000    0.0000    0.0000 C   0  0  0  0  0  0  0  0  0  0  0  0
    0.7500    1.2990    0.0000 C   0  0  0  0  0  0  0  0  0  0  0  0
   -0.7500    1.2990    0.0000 C   0  0  0  0  0  0  0  0  0  0  0  0
   -1.7537    2.4138    0.0000 N   0  0  0  0  0  0  0  0  0  0  0  0
   -3.1240    1.8037    0.0000 N   0  0  0  0  0  0  0  0  0  0  0  0
   -2.9672    0.3119    0.0000 C   0  0  0  0  0  0  0  0  0  0  0  0
   -4.0819   -0.6918    0.0000 N   0  0  0  0  0  0  0  0  0  0  0  0
   -1.5000    0.0000    0.0000 C   0  0  0  0  0  0  0  0  0  0  0  0
   -0.7500   -1.2990    0.0000 C   0  0  0  0  0  0  0  0  0  0  0  0
  1  2  1  0
  2  3  2  0
  2  4  2  0
  2  5  1  0
  5  6  1  0
  6  7  2  0
  7  8  1  0
  8  9  2  0
  9 10  1  0
 10 11  2  0
  9 12  1  0
 12 13  2  0
 13 14  1  0
 14 15  2  0
 15 16  1  0
 16 17  1  0
 17 18  2  0
 18 19  1  0
 18 20  1  0
 20 21  2  0
 11  6  1  0
 21 12  1  0
 20 15  1  0
M  END
>  <activity_comment>  (66) 
active

>  <activity_id>  (66) 
9622497

>  <activity_properties>  (66) 
[]

>  <assay_chembl_id>  (66) 
CHEMBL1963787

>  <assay_description>  (66) 
PUBCHEM_BIOASSAY: Navigating the Kinome. (Class of assay: other) Panel member name: CAMK2B

>  <assay_type>  (66) 
F

>  <bao_endpoint>  (66) 
BAO_0000192

>  <bao_format>  (66) 
BAO_0000019

>  <bao_label>  (66) 
assay format

>  <canonical_smiles>  (66) 
CS(=O)(=O)Nc1ccc(cc1)c2ccc3[nH]nc(N)c3c2

>  <data_validity_comment>  (66) 
nan

>  <data_validity_description>  (66) 
nan

>  <document_chembl_id>  (66) 
CHEMBL1201862

>  <document_journal>  (66) 
nan

>  <document_year>  (66) 
nan

>  <ligand_efficiency>  (66) 
nan

>  <molecule_pref_name>  (66) 
nan

>  <parent_molecule_chembl_id>  (66) 
CHEMBL2004892

>  <pchembl_value>  (66) 
5.4

>  <potential_duplicate>  (66) 
False

>  <qudt_units>  (66) 
http://www.openphacts.org/units/Nanomolar

>  <record_id>  (66) 
1584369

>  <relation>  (66) 
=

>  <src_id>  (66) 
7

>  <standard_flag>  (66) 
True

>  <standard_relation>  (66) 
=

>  <standard_text_value>  (66) 
nan

>  <standard_type>  (66) 
Ki

>  <standard_units>  (66) 
nM

>  <standard_upper_value>  (66) 
nan

>  <standard_value>  (66) 
3981.07

>  <target_chembl_id>  (66) 
CHEMBL4121

>  <target_organism>  (66) 
Homo sapiens

>  <target_pref_name>  (66) 
CaM kinase II beta

>  <target_tax_id>  (66) 
9606

>  <text_value>  (66) 
nan

>  <toid>  (66) 
nan

>  <type>  (66) 
pKi

>  <units>  (66) 
nan

>  <uo_units>  (66) 
UO_0000065

>  <upper_value>  (66) 
nan

>  <value>  (66) 
5.4

>  <SMILES>  (66) 
CS(=O)(=O)Nc1ccc(cc1)c2ccc3[nH]nc(N)c3c2

>  <NAME>  (66) 
CHEMBL2004892

>  <FILTER>  (66) 
OK

>  <MW>  (66) 
302.359

>  <LogP>  (66) 
2.1836

>  <HBD>  (66) 
3

>  <HBA>  (66) 
4

>  <TPSA>  (66) 
100.87

>  <Label>  (66) 
CAMK2B

$$$$
CHEMBL1990821
     RDKit          2D

 32 35  0  0  0  0  0  0  0  0999 V2000
  -13.1324    1.8488    0.0000 C   0  0  0  0  0  0  0  0  0  0  0  0
  -11.7058    2.3123    0.0000 C   0  0  0  0  0  0  0  0  0  0  0  0
  -11.3940    3.7796    0.0000 C   0  0  0  0  0  0  0  0  0  0  0  0
   -9.9674    4.2431    0.0000 C   0  0  0  0  0  0  0  0  0  0  0  0
   -9.6555    5.7103    0.0000 C   0  0  0  0  0  0  0  0  0  0  0  0
   -8.8527    3.2394    0.0000 C   0  0  0  0  0  0  0  0  0  0  0  0
   -7.4261    3.7029    0.0000 C   0  0  0  0  0  0  0  0  0  0  0  0
   -9.1645    1.7722    0.0000 C   0  0  0  0  0  0  0  0  0  0  0  0
   -8.0498    0.7685    0.0000 O   0  0  0  0  0  0  0  0  0  0  0  0
   -6.6232    1.2320    0.0000 C   0  0  0  0  0  0  0  0  0  0  0  0
   -5.5085    0.2283    0.0000 C   0  0  0  0  0  0  0  0  0  0  0  0
   -4.0819    0.6918    0.0000 C   0  0  0  0  0  0  0  0  0  0  0  0
   -2.9672   -0.3119    0.0000 C   0  0  0  0  0  0  0  0  0  0  0  0
   -3.1240   -1.8037    0.0000 C   0  0  0  0  0  0  0  0  0  0  0  0
   -1.7537   -2.4138    0.0000 N   0  0  0  0  0  0  0  0  0  0  0  0
   -0.7500   -1.2990    0.0000 C   0  0  0  0  0  0  0  0  0  0  0  0
    0.7500   -1.2990    0.0000 C   0  0  0  0  0  0  0  0  0  0  0  0
    1.5000    0.0000    0.0000 C   0  0  0  0  0  0  0  0  0  0  0  0
    0.7500    1.2990    0.0000 C   0  0  0  0  0  0  0  0  0  0  0  0
   -0.7500    1.2990    0.0000 C   0  0  0  0  0  0  0  0  0  0  0  0
   -1.5000    0.0000    0.0000 C   0  0  0  0  0  0  0  0  0  0  0  0
    1.5000   -2.5981    0.0000 C   0  0  0  0  0  0  0  0  0  0  0  0
    0.7500   -3.8971    0.0000 C   0  0  0  0  0  0  0  0  0  0  0  0
    1.5000   -5.1962    0.0000 C   0  0  0  0  0  0  0  0  0  0  0  0
    3.0000   -5.1962    0.0000 C   0  0  0  0  0  0  0  0  0  0  0  0
    3.7500   -3.8971    0.0000 C   0  0  0  0  0  0  0  0  0  0  0  0
    3.0000   -2.5981    0.0000 C   0  0  0  0  0  0  0  0  0  0  0  0
    3.7500   -1.2990    0.0000 C   0  0  0  0  0  0  0  0  0  0  0  0
   -4.4231   -2.5537    0.0000 C   0  0  0  0  0  0  0  0  0  0  0  0
   -5.7221   -1.8037    0.0000 O   0  0  0  0  0  0  0  0  0  0  0  0
   -4.4231   -4.0537    0.0000 O   0  0  0  0  0  0  0  0  0  0  0  0
  -10.5911    1.3086    0.0000 C   0  0  0  0  0  0  0  0  0  0  0  0
  1  2  1  0
  2  3  2  0
  3  4  1  0
  4  5  1  0
  4  6  2  0
  6  7  1  0
  6  8  1  0
  8  9  1  0
  9 10  1  0
 10 11  1  0
 11 12  1  0
 12 13  1  0
 13 14  2  0
 14 15  1  0
 15 16  1  0
 16 17  2  0
 17 18  1  0
 18 19  2  0
 19 20  1  0
 20 21  2  0
 17 22  1  0
 22 23  2  0
 23 24  1  0
 24 25  2  0
 25 26  1  0
 26 27  2  0
 27 28  1  0
 14 29  1  0
 29 30  2  0
 29 31  1  0
  8 32  2  0
 32  2  1  0
 21 13  1  0
 21 16  1  0
 27 22  1  0
M  END
>  <activity_comment>  (67) 
active

>  <activity_id>  (67) 
9622501

>  <activity_properties>  (67) 
[]

>  <assay_chembl_id>  (67) 
CHEMBL1963787

>  <assay_description>  (67) 
PUBCHEM_BIOASSAY: Navigating the Kinome. (Class of assay: other) Panel member name: CAMK2B

>  <assay_type>  (67) 
F

>  <bao_endpoint>  (67) 
BAO_0000192

>  <bao_format>  (67) 
BAO_0000019

>  <bao_label>  (67) 
assay format

>  <canonical_smiles>  (67) 
Cc1cc(C)c(C)c(OCCCc2c([nH]c3c(cccc23)c4ccccc4C)C(=O)O)c1

>  <data_validity_comment>  (67) 
nan

>  <data_validity_description>  (67) 
nan

>  <document_chembl_id>  (67) 
CHEMBL1201862

>  <document_journal>  (67) 
nan

>  <document_year>  (67) 
nan

>  <ligand_efficiency>  (67) 
nan

>  <molecule_pref_name>  (67) 
nan

>  <parent_molecule_chembl_id>  (67) 
CHEMBL1990821

>  <pchembl_value>  (67) 
5.2

>  <potential_duplicate>  (67) 
False

>  <qudt_units>  (67) 
http://www.openphacts.org/units/Nanomolar

>  <record_id>  (67) 
1585052

>  <relation>  (67) 
=

>  <src_id>  (67) 
7

>  <standard_flag>  (67) 
True

>  <standard_relation>  (67) 
=

>  <standard_text_value>  (67) 
nan

>  <standard_type>  (67) 
Ki

>  <standard_units>  (67) 
nM

>  <standard_upper_value>  (67) 
nan

>  <standard_value>  (67) 
6309.57

>  <target_chembl_id>  (67) 
CHEMBL4121

>  <target_organism>  (67) 
Homo sapiens

>  <target_pref_name>  (67) 
CaM kinase II beta

>  <target_tax_id>  (67) 
9606

>  <text_value>  (67) 
nan

>  <toid>  (67) 
nan

>  <type>  (67) 
pKi

>  <units>  (67) 
nan

>  <uo_units>  (67) 
UO_0000065

>  <upper_value>  (67) 
nan

>  <value>  (67) 
5.2

>  <SMILES>  (67) 
Cc1cc(C)c(C)c(OCCCc2c([nH]c3c(cccc23)c4ccccc4C)C(=O)O)c1

>  <NAME>  (67) 
CHEMBL1990821

>  <FILTER>  (67) 
OK

>  <MW>  (67) 
427.544

>  <LogP>  (67) 
6.77838

>  <HBD>  (67) 
2

>  <HBA>  (67) 
2

>  <TPSA>  (67) 
62.32

>  <Label>  (67) 
CAMK2B

$$$$
CHEMBL1966722
     RDKit          2D

 28 30  0  0  0  0  0  0  0  0999 V2000
   -0.0000  -10.3923    0.0000 O   0  0  0  0  0  0  0  0  0  0  0  0
    0.7500   -9.0933    0.0000 C   0  0  0  0  0  0  0  0  0  0  0  0
    1.5000   -7.7942    0.0000 C   0  0  0  0  0  0  0  0  0  0  0  0
    3.0000   -7.7942    0.0000 O   0  0  0  0  0  0  0  0  0  0  0  0
    0.7500   -6.4952    0.0000 N   0  0  0  0  0  0  0  0  0  0  0  0
    1.5000   -5.1962    0.0000 N   0  0  0  0  0  0  0  0  0  0  0  0
    0.7500   -3.8971    0.0000 C   0  0  0  0  0  0  0  0  0  0  0  0
   -0.7500   -3.8971    0.0000 S   0  0  0  0  0  0  0  0  0  0  0  0
    1.5000   -2.5981    0.0000 N   0  0  0  0  0  0  0  0  0  0  0  0
    0.7500   -1.2990    0.0000 C   0  0  0  0  0  0  0  0  0  0  0  0
    1.5000    0.0000    0.0000 C   0  0  0  0  0  0  0  0  0  0  0  0
    0.7500    1.2990    0.0000 C   0  0  0  0  0  0  0  0  0  0  0  0
   -0.7500    1.2990    0.0000 C   0  0  0  0  0  0  0  0  0  0  0  0
   -1.5000    2.5981    0.0000 Cl  0  0  0  0  0  0  0  0  0  0  0  0
   -1.5000    0.0000    0.0000 C   0  0  0  0  0  0  0  0  0  0  0  0
   -0.7500   -1.2990    0.0000 C   0  0  0  0  0  0  0  0  0  0  0  0
   -0.5490   -8.3433    0.0000 C   0  0  0  0  0  0  0  0  0  0  0  0
   -0.5490   -6.8433    0.0000 C   0  0  0  0  0  0  0  0  0  0  0  0
   -1.8481   -6.0933    0.0000 C   0  0  0  0  0  0  0  0  0  0  0  0
   -3.1471   -6.8433    0.0000 C   0  0  0  0  0  0  0  0  0  0  0  0
   -3.1471   -8.3433    0.0000 C   0  0  0  0  0  0  0  0  0  0  0  0
   -1.8481   -9.0933    0.0000 C   0  0  0  0  0  0  0  0  0  0  0  0
    2.0490   -9.8433    0.0000 C   0  0  0  0  0  0  0  0  0  0  0  0
    2.0490  -11.3433    0.0000 C   0  0  0  0  0  0  0  0  0  0  0  0
    3.3481  -12.0933    0.0000 C   0  0  0  0  0  0  0  0  0  0  0  0
    4.6471  -11.3433    0.0000 C   0  0  0  0  0  0  0  0  0  0  0  0
    4.6471   -9.8433    0.0000 C   0  0  0  0  0  0  0  0  0  0  0  0
    3.3481   -9.0933    0.0000 C   0  0  0  0  0  0  0  0  0  0  0  0
  1  2  1  0
  2  3  1  0
  3  4  2  0
  3  5  1  0
  5  6  1  0
  6  7  1  0
  7  8  2  0
  7  9  1  0
  9 10  1  0
 10 11  2  0
 11 12  1  0
 12 13  2  0
 13 14  1  0
 13 15  1  0
 15 16  2  0
  2 17  1  0
 17 18  2  0
 18 19  1  0
 19 20  2  0
 20 21  1  0
 21 22  2  0
  2 23  1  0
 23 24  2  0
 24 25  1  0
 25 26  2  0
 26 27  1  0
 27 28  2  0
 16 10  1  0
 22 17  1  0
 28 23  1  0
M  END
>  <activity_comment>  (68) 
active

>  <activity_id>  (68) 
9622511

>  <activity_properties>  (68) 
[]

>  <assay_chembl_id>  (68) 
CHEMBL1963787

>  <assay_description>  (68) 
PUBCHEM_BIOASSAY: Navigating the Kinome. (Class of assay: other) Panel member name: CAMK2B

>  <assay_type>  (68) 
F

>  <bao_endpoint>  (68) 
BAO_0000192

>  <bao_format>  (68) 
BAO_0000019

>  <bao_label>  (68) 
assay format

>  <canonical_smiles>  (68) 
OC(C(=O)NNC(=S)Nc1ccc(Cl)cc1)(c2ccccc2)c3ccccc3

>  <data_validity_comment>  (68) 
nan

>  <data_validity_description>  (68) 
nan

>  <document_chembl_id>  (68) 
CHEMBL1201862

>  <document_journal>  (68) 
nan

>  <document_year>  (68) 
nan

>  <ligand_efficiency>  (68) 
nan

>  <molecule_pref_name>  (68) 
nan

>  <parent_molecule_chembl_id>  (68) 
CHEMBL1966722

>  <pchembl_value>  (68) 
5.5

>  <potential_duplicate>  (68) 
False

>  <qudt_units>  (68) 
http://www.openphacts.org/units/Nanomolar

>  <record_id>  (68) 
1584332

>  <relation>  (68) 
=

>  <src_id>  (68) 
7

>  <standard_flag>  (68) 
True

>  <standard_relation>  (68) 
=

>  <standard_text_value>  (68) 
nan

>  <standard_type>  (68) 
Ki

>  <standard_units>  (68) 
nM

>  <standard_upper_value>  (68) 
nan

>  <standard_value>  (68) 
3162.28

>  <target_chembl_id>  (68) 
CHEMBL4121

>  <target_organism>  (68) 
Homo sapiens

>  <target_pref_name>  (68) 
CaM kinase II beta

>  <target_tax_id>  (68) 
9606

>  <text_value>  (68) 
nan

>  <toid>  (68) 
nan

>  <type>  (68) 
pKi

>  <units>  (68) 
nan

>  <uo_units>  (68) 
UO_0000065

>  <upper_value>  (68) 
nan

>  <value>  (68) 
5.5

>  <SMILES>  (68) 
OC(C(=O)NNC(=S)Nc1ccc(Cl)cc1)(c2ccccc2)c3ccccc3

>  <NAME>  (68) 
CHEMBL1966722

>  <FILTER>  (68) 
OK

>  <MW>  (68) 
411.914

>  <LogP>  (68) 
3.5937

>  <HBD>  (68) 
4

>  <HBA>  (68) 
3

>  <TPSA>  (68) 
73.39

>  <Label>  (68) 
CAMK2B

$$$$
CHEMBL1975500
     RDKit          2D

 34 37  0  0  0  0  0  0  0  0999 V2000
   -0.7500   -6.4952    0.0000 C   0  0  0  0  0  0  0  0  0  0  0  0
    0.7500   -6.4952    0.0000 O   0  0  0  0  0  0  0  0  0  0  0  0
    1.5000   -5.1962    0.0000 C   0  0  0  0  0  0  0  0  0  0  0  0
    0.7500   -3.8971    0.0000 C   0  0  0  0  0  0  0  0  0  0  0  0
    1.5000   -2.5981    0.0000 C   0  0  0  0  0  0  0  0  0  0  0  0
    3.0000   -2.5981    0.0000 C   0  0  0  0  0  0  0  0  0  0  0  0
    3.7500   -3.8971    0.0000 C   0  0  0  0  0  0  0  0  0  0  0  0
    3.0000   -5.1962    0.0000 C   0  0  0  0  0  0  0  0  0  0  0  0
    3.7500   -6.4952    0.0000 O   0  0  0  0  0  0  0  0  0  0  0  0
    0.7500   -1.2990    0.0000 C   0  0  0  0  0  0  0  0  0  0  0  0
    1.5000    0.0000    0.0000 C   0  0  0  0  0  0  0  0  0  0  0  0
    0.7500    1.2990    0.0000 C   0  0  0  0  0  0  0  0  0  0  0  0
   -0.7500    1.2990    0.0000 C   0  0  0  0  0  0  0  0  0  0  0  0
   -1.2980    2.6953    0.0000 C   0  0  0  0  0  0  0  0  0  0  0  0
   -0.2778    3.7949    0.0000 O   0  0  0  0  0  0  0  0  0  0  0  0
   -2.7314    3.1375    0.0000 N   0  0  0  0  0  0  0  0  0  0  0  0
   -3.9707    2.2925    0.0000 C   0  0  0  0  0  0  0  0  0  0  0  0
   -5.2101    3.1375    0.0000 C   0  0  0  0  0  0  0  0  0  0  0  0
   -6.5615    2.4867    0.0000 C   0  0  0  0  0  0  0  0  0  0  0  0
   -6.6736    0.9909    0.0000 C   0  0  0  0  0  0  0  0  0  0  0  0
   -5.4343    0.1459    0.0000 C   0  0  0  0  0  0  0  0  0  0  0  0
   -4.0828    0.7967    0.0000 C   0  0  0  0  0  0  0  0  0  0  0  0
   -2.9832   -0.2236    0.0000 N   0  0  0  0  0  0  0  0  0  0  0  0
   -1.5000    0.0000    0.0000 C   0  0  0  0  0  0  0  0  0  0  0  0
   -0.7500   -1.2990    0.0000 C   0  0  0  0  0  0  0  0  0  0  0  0
   -7.8009    3.3316    0.0000 C   0  0  0  0  0  0  0  0  0  0  0  0
   -9.1524    2.6808    0.0000 O   0  0  0  0  0  0  0  0  0  0  0  0
   -7.6888    4.8274    0.0000 N   0  0  0  0  0  0  0  0  0  0  0  0
   -8.9282    5.6724    0.0000 C   0  0  0  0  0  0  0  0  0  0  0  0
   -8.8161    7.1682    0.0000 C   0  0  0  0  0  0  0  0  0  0  0  0
  -10.0554    8.0132    0.0000 N   0  0  0  0  0  0  0  0  0  0  0  0
   -9.9433    9.5090    0.0000 C   0  0  0  0  0  0  0  0  0  0  0  0
   -8.5919   10.1598    0.0000 O   0  0  0  0  0  0  0  0  0  0  0  0
  -11.1827   10.3540    0.0000 C   0  0  0  0  0  0  0  0  0  0  0  0
  1  2  1  0
  2  3  1  0
  3  4  2  0
  4  5  1  0
  5  6  2  0
  6  7  1  0
  7  8  2  0
  8  9  1  0
  5 10  1  0
 10 11  2  0
 11 12  1  0
 12 13  2  0
 13 14  1  0
 14 15  2  0
 14 16  1  0
 16 17  1  0
 17 18  2  0
 18 19  1  0
 19 20  2  0
 20 21  1  0
 21 22  2  0
 22 23  1  0
 23 24  1  0
 24 25  2  0
 19 26  1  0
 26 27  2  0
 26 28  1  0
 28 29  1  0
 29 30  1  0
 30 31  1  0
 31 32  1  0
 32 33  2  0
 32 34  1  0
  8  3  1  0
 25 10  1  0
 24 13  1  0
 22 17  1  0
M  END
>  <activity_comment>  (69) 
active

>  <activity_id>  (69) 
9622512

>  <activity_properties>  (69) 
[]

>  <assay_chembl_id>  (69) 
CHEMBL1963787

>  <assay_description>  (69) 
PUBCHEM_BIOASSAY: Navigating the Kinome. (Class of assay: other) Panel member name: CAMK2B

>  <assay_type>  (69) 
F

>  <bao_endpoint>  (69) 
BAO_0000192

>  <bao_format>  (69) 
BAO_0000019

>  <bao_label>  (69) 
assay format

>  <canonical_smiles>  (69) 
COc1cc(ccc1O)c2ccc3C(=O)Nc4cc(ccc4Nc3c2)C(=O)NCCNC(=O)C

>  <data_validity_comment>  (69) 
nan

>  <data_validity_description>  (69) 
nan

>  <document_chembl_id>  (69) 
CHEMBL1201862

>  <document_journal>  (69) 
nan

>  <document_year>  (69) 
nan

>  <ligand_efficiency>  (69) 
nan

>  <molecule_pref_name>  (69) 
nan

>  <parent_molecule_chembl_id>  (69) 
CHEMBL1975500

>  <pchembl_value>  (69) 
5.7

>  <potential_duplicate>  (69) 
False

>  <qudt_units>  (69) 
http://www.openphacts.org/units/Nanomolar

>  <record_id>  (69) 
1584594

>  <relation>  (69) 
=

>  <src_id>  (69) 
7

>  <standard_flag>  (69) 
True

>  <standard_relation>  (69) 
=

>  <standard_text_value>  (69) 
nan

>  <standard_type>  (69) 
Ki

>  <standard_units>  (69) 
nM

>  <standard_upper_value>  (69) 
nan

>  <standard_value>  (69) 
1995.26

>  <target_chembl_id>  (69) 
CHEMBL4121

>  <target_organism>  (69) 
Homo sapiens

>  <target_pref_name>  (69) 
CaM kinase II beta

>  <target_tax_id>  (69) 
9606

>  <text_value>  (69) 
nan

>  <toid>  (69) 
nan

>  <type>  (69) 
pKi

>  <units>  (69) 
nan

>  <uo_units>  (69) 
UO_0000065

>  <upper_value>  (69) 
nan

>  <value>  (69) 
5.7

>  <SMILES>  (69) 
COc1cc(ccc1O)c2ccc3C(=O)Nc4cc(ccc4Nc3c2)C(=O)NCCNC(=O)C

>  <NAME>  (69) 
CHEMBL1975500

>  <FILTER>  (69) 
OK

>  <MW>  (69) 
460.49

>  <LogP>  (69) 
3.243

>  <HBD>  (69) 
5

>  <HBA>  (69) 
6

>  <TPSA>  (69) 
128.79

>  <Label>  (69) 
CAMK2B

$$$$
CHEMBL394619
     RDKit          2D

 27 30  0  0  0  0  0  0  0  0999 V2000
  -14.5438   -2.9592    0.0000 C   0  0  0  0  0  0  0  0  0  0  0  0
  -13.1172   -2.4957    0.0000 C   0  0  0  0  0  0  0  0  0  0  0  0
  -12.8053   -1.0285    0.0000 C   0  0  0  0  0  0  0  0  0  0  0  0
  -11.3787   -0.5649    0.0000 C   0  0  0  0  0  0  0  0  0  0  0  0
  -10.2640   -1.5686    0.0000 C   0  0  0  0  0  0  0  0  0  0  0  0
  -10.5759   -3.0359    0.0000 C   0  0  0  0  0  0  0  0  0  0  0  0
   -9.4612   -4.0396    0.0000 N   0  0  0  0  0  0  0  0  0  0  0  0
   -8.0346   -3.5760    0.0000 C   0  0  0  0  0  0  0  0  0  0  0  0
   -7.7227   -2.1088    0.0000 O   0  0  0  0  0  0  0  0  0  0  0  0
   -6.9199   -4.5797    0.0000 N   0  0  0  0  0  0  0  0  0  0  0  0
   -5.4933   -4.1162    0.0000 C   0  0  0  0  0  0  0  0  0  0  0  0
   -4.3786   -5.1199    0.0000 C   0  0  0  0  0  0  0  0  0  0  0  0
   -2.9520   -4.6564    0.0000 C   0  0  0  0  0  0  0  0  0  0  0  0
   -2.6401   -3.1891    0.0000 C   0  0  0  0  0  0  0  0  0  0  0  0
   -3.7548   -2.1855    0.0000 C   0  0  0  0  0  0  0  0  0  0  0  0
   -5.1814   -2.6490    0.0000 C   0  0  0  0  0  0  0  0  0  0  0  0
   -1.2135   -2.7256    0.0000 C   0  0  0  0  0  0  0  0  0  0  0  0
    0.0000   -3.6073    0.0000 C   0  0  0  0  0  0  0  0  0  0  0  0
    1.2135   -2.7256    0.0000 S   0  0  0  0  0  0  0  0  0  0  0  0
    0.7500   -1.2990    0.0000 C   0  0  0  0  0  0  0  0  0  0  0  0
    1.5000    0.0000    0.0000 C   0  0  0  0  0  0  0  0  0  0  0  0
    0.7500    1.2990    0.0000 C   0  0  0  0  0  0  0  0  0  0  0  0
   -0.7500    1.2990    0.0000 N   0  0  0  0  0  0  0  0  0  0  0  0
   -1.5000    0.0000    0.0000 C   0  0  0  0  0  0  0  0  0  0  0  0
   -3.0000    0.0000    0.0000 N   0  0  0  0  0  0  0  0  0  0  0  0
   -0.7500   -1.2990    0.0000 C   0  0  0  0  0  0  0  0  0  0  0  0
  -12.0025   -3.4994    0.0000 C   0  0  0  0  0  0  0  0  0  0  0  0
  1  2  1  0
  2  3  2  0
  3  4  1  0
  4  5  2  0
  5  6  1  0
  6  7  1  0
  7  8  1  0
  8  9  2  0
  8 10  1  0
 10 11  1  0
 11 12  2  0
 12 13  1  0
 13 14  2  0
 14 15  1  0
 15 16  2  0
 14 17  1  0
 17 18  2  0
 18 19  1  0
 19 20  1  0
 20 21  2  0
 21 22  1  0
 22 23  2  0
 23 24  1  0
 24 25  1  0
 24 26  2  0
  6 27  2  0
 27  2  1  0
 16 11  1  0
 26 17  1  0
 26 20  1  0
M  END
>  <activity_comment>  (70) 
active

>  <activity_id>  (70) 
9622513

>  <activity_properties>  (70) 
[]

>  <assay_chembl_id>  (70) 
CHEMBL1963787

>  <assay_description>  (70) 
PUBCHEM_BIOASSAY: Navigating the Kinome. (Class of assay: other) Panel member name: CAMK2B

>  <assay_type>  (70) 
F

>  <bao_endpoint>  (70) 
BAO_0000192

>  <bao_format>  (70) 
BAO_0000019

>  <bao_label>  (70) 
assay format

>  <canonical_smiles>  (70) 
Cc1cccc(NC(=O)Nc2ccc(cc2)c3csc4ccnc(N)c34)c1

>  <data_validity_comment>  (70) 
nan

>  <data_validity_description>  (70) 
nan

>  <document_chembl_id>  (70) 
CHEMBL1201862

>  <document_journal>  (70) 
nan

>  <document_year>  (70) 
nan

>  <ligand_efficiency>  (70) 
nan

>  <molecule_pref_name>  (70) 
nan

>  <parent_molecule_chembl_id>  (70) 
CHEMBL394619

>  <pchembl_value>  (70) 
5.5

>  <potential_duplicate>  (70) 
False

>  <qudt_units>  (70) 
http://www.openphacts.org/units/Nanomolar

>  <record_id>  (70) 
1584177

>  <relation>  (70) 
=

>  <src_id>  (70) 
7

>  <standard_flag>  (70) 
True

>  <standard_relation>  (70) 
=

>  <standard_text_value>  (70) 
nan

>  <standard_type>  (70) 
Ki

>  <standard_units>  (70) 
nM

>  <standard_upper_value>  (70) 
nan

>  <standard_value>  (70) 
3162.28

>  <target_chembl_id>  (70) 
CHEMBL4121

>  <target_organism>  (70) 
Homo sapiens

>  <target_pref_name>  (70) 
CaM kinase II beta

>  <target_tax_id>  (70) 
9606

>  <text_value>  (70) 
nan

>  <toid>  (70) 
nan

>  <type>  (70) 
pKi

>  <units>  (70) 
nan

>  <uo_units>  (70) 
UO_0000065

>  <upper_value>  (70) 
nan

>  <value>  (70) 
5.5

>  <SMILES>  (70) 
Cc1cccc(NC(=O)Nc2ccc(cc2)c3csc4ccnc(N)c34)c1

>  <NAME>  (70) 
CHEMBL394619

>  <FILTER>  (70) 
OK

>  <MW>  (70) 
374.469

>  <LogP>  (70) 
5.49792

>  <HBD>  (70) 
3

>  <HBA>  (70) 
4

>  <TPSA>  (70) 
80.04

>  <Label>  (70) 
CAMK2B

$$$$
CHEMBL1996831
     RDKit          2D

 21 24  0  0  0  0  0  0  0  0999 V2000
   -3.7500   -1.2990    0.0000 O   0  0  0  0  0  0  0  0  0  0  0  0
   -3.0000   -2.5981    0.0000 C   0  0  0  0  0  0  0  0  0  0  0  0
   -3.7500   -3.8971    0.0000 O   0  0  0  0  0  0  0  0  0  0  0  0
   -1.5000   -2.5981    0.0000 C   0  0  0  0  0  0  0  0  0  0  0  0
   -0.7500   -3.8971    0.0000 C   0  0  0  0  0  0  0  0  0  0  0  0
   -1.2135   -5.3237    0.0000 C   0  0  0  0  0  0  0  0  0  0  0  0
   -0.0000   -6.2054    0.0000 C   0  0  0  0  0  0  0  0  0  0  0  0
    1.2135   -5.3237    0.0000 C   0  0  0  0  0  0  0  0  0  0  0  0
    2.6401   -5.7872    0.0000 C   0  0  0  0  0  0  0  0  0  0  0  0
    3.8536   -4.9055    0.0000 C   0  0  0  0  0  0  0  0  0  0  0  0
    5.0672   -5.7872    0.0000 C   0  0  0  0  0  0  0  0  0  0  0  0
    4.6036   -7.2138    0.0000 C   0  0  0  0  0  0  0  0  0  0  0  0
    3.1036   -7.2138    0.0000 C   0  0  0  0  0  0  0  0  0  0  0  0
    0.7500   -3.8971    0.0000 C   0  0  0  0  0  0  0  0  0  0  0  0
    1.5000   -2.5981    0.0000 N   0  0  0  0  0  0  0  0  0  0  0  0
    0.7500   -1.2990    0.0000 C   0  0  0  0  0  0  0  0  0  0  0  0
    1.5000    0.0000    0.0000 C   0  0  0  0  0  0  0  0  0  0  0  0
    0.7500    1.2990    0.0000 C   0  0  0  0  0  0  0  0  0  0  0  0
   -0.7500    1.2990    0.0000 C   0  0  0  0  0  0  0  0  0  0  0  0
   -1.5000    0.0000    0.0000 C   0  0  0  0  0  0  0  0  0  0  0  0
   -0.7500   -1.2990    0.0000 C   0  0  0  0  0  0  0  0  0  0  0  0
  1  2  1  0
  2  3  2  0
  2  4  1  0
  4  5  2  0
  5  6  1  0
  6  7  1  0
  7  8  1  0
  8  9  2  3
  9 10  1  0
 10 11  1  0
 11 12  1  0
 12 13  1  0
  8 14  1  0
 14 15  2  0
 15 16  1  0
 16 17  2  0
 17 18  1  0
 18 19  2  0
 19 20  1  0
 20 21  2  0
 21  4  1  0
 14  5  1  0
 13  9  1  0
 21 16  1  0
M  END
>  <activity_comment>  (71) 
active

>  <activity_id>  (71) 
9622514

>  <activity_properties>  (71) 
[]

>  <assay_chembl_id>  (71) 
CHEMBL1963787

>  <assay_description>  (71) 
PUBCHEM_BIOASSAY: Navigating the Kinome. (Class of assay: other) Panel member name: CAMK2B

>  <assay_type>  (71) 
F

>  <bao_endpoint>  (71) 
BAO_0000192

>  <bao_format>  (71) 
BAO_0000019

>  <bao_label>  (71) 
assay format

>  <canonical_smiles>  (71) 
OC(=O)c1c2CCC(=C3CCCC3)c2nc4ccccc14

>  <data_validity_comment>  (71) 
nan

>  <data_validity_description>  (71) 
nan

>  <document_chembl_id>  (71) 
CHEMBL1201862

>  <document_journal>  (71) 
nan

>  <document_year>  (71) 
nan

>  <ligand_efficiency>  (71) 
nan

>  <molecule_pref_name>  (71) 
nan

>  <parent_molecule_chembl_id>  (71) 
CHEMBL1996831

>  <pchembl_value>  (71) 
5.4

>  <potential_duplicate>  (71) 
False

>  <qudt_units>  (71) 
http://www.openphacts.org/units/Nanomolar

>  <record_id>  (71) 
1584691

>  <relation>  (71) 
=

>  <src_id>  (71) 
7

>  <standard_flag>  (71) 
True

>  <standard_relation>  (71) 
=

>  <standard_text_value>  (71) 
nan

>  <standard_type>  (71) 
Ki

>  <standard_units>  (71) 
nM

>  <standard_upper_value>  (71) 
nan

>  <standard_value>  (71) 
3981.07

>  <target_chembl_id>  (71) 
CHEMBL4121

>  <target_organism>  (71) 
Homo sapiens

>  <target_pref_name>  (71) 
CaM kinase II beta

>  <target_tax_id>  (71) 
9606

>  <text_value>  (71) 
nan

>  <toid>  (71) 
nan

>  <type>  (71) 
pKi

>  <units>  (71) 
nan

>  <uo_units>  (71) 
UO_0000065

>  <upper_value>  (71) 
nan

>  <value>  (71) 
5.4

>  <SMILES>  (71) 
OC(=O)c1c2CCC(=C3CCCC3)c2nc4ccccc14

>  <NAME>  (71) 
CHEMBL1996831

>  <FILTER>  (71) 
OK

>  <MW>  (71) 
279.339

>  <LogP>  (71) 
4.2068

>  <HBD>  (71) 
1

>  <HBA>  (71) 
2

>  <TPSA>  (71) 
50.19

>  <Label>  (71) 
CAMK2B

$$$$
CHEMBL411903
     RDKit          2D

 33 36  0  0  0  0  0  0  0  0999 V2000
   -2.2892    3.4524    0.0000 N   0  0  0  0  0  0  0  0  0  0  0  0
   -0.8268    3.1186    0.0000 C   0  0  0  0  0  0  0  0  0  0  0  0
    0.1935    4.2182    0.0000 N   0  0  0  0  0  0  0  0  0  0  0  0
    1.6559    3.8844    0.0000 C   0  0  0  0  0  0  0  0  0  0  0  0
    2.0980    2.4510    0.0000 N   0  0  0  0  0  0  0  0  0  0  0  0
    1.0777    1.3515    0.0000 C   0  0  0  0  0  0  0  0  0  0  0  0
    1.7286    0.0000    0.0000 N   0  0  0  0  0  0  0  0  0  0  0  0
    1.0777   -1.3515    0.0000 C   0  0  0  0  0  0  0  0  0  0  0  0
   -0.3846   -1.6852    0.0000 C   0  0  0  0  0  0  0  0  0  0  0  0
   -1.5574   -0.7500    0.0000 C   0  0  0  0  0  0  0  0  0  0  0  0
   -1.5574    0.7500    0.0000 N   0  0  0  0  0  0  0  0  0  0  0  0
   -0.3846    1.6852    0.0000 C   0  0  0  0  0  0  0  0  0  0  0  0
   -2.9088   -1.4008    0.0000 C   0  0  0  0  0  0  0  0  0  0  0  0
   -4.1482   -0.5558    0.0000 C   0  0  0  0  0  0  0  0  0  0  0  0
   -5.4997   -1.2067    0.0000 C   0  0  0  0  0  0  0  0  0  0  0  0
   -5.6118   -2.7025    0.0000 C   0  0  0  0  0  0  0  0  0  0  0  0
   -6.9632   -3.3533    0.0000 N   0  0  0  0  0  0  0  0  0  0  0  0
   -8.2026   -2.5083    0.0000 C   0  0  0  0  0  0  0  0  0  0  0  0
   -8.0905   -1.0125    0.0000 O   0  0  0  0  0  0  0  0  0  0  0  0
   -9.5540   -3.1591    0.0000 N   0  0  0  0  0  0  0  0  0  0  0  0
  -10.7934   -2.3142    0.0000 C   0  0  0  0  0  0  0  0  0  0  0  0
  -10.6813   -0.8184    0.0000 C   0  0  0  0  0  0  0  0  0  0  0  0
  -11.9206    0.0266    0.0000 C   0  0  0  0  0  0  0  0  0  0  0  0
  -13.2721   -0.6242    0.0000 C   0  0  0  0  0  0  0  0  0  0  0  0
  -13.3842   -2.1200    0.0000 C   0  0  0  0  0  0  0  0  0  0  0  0
  -12.1448   -2.9650    0.0000 C   0  0  0  0  0  0  0  0  0  0  0  0
  -12.2569   -4.4608    0.0000 F   0  0  0  0  0  0  0  0  0  0  0  0
  -11.8085    1.5224    0.0000 C   0  0  0  0  0  0  0  0  0  0  0  0
  -11.6964    3.0182    0.0000 F   0  0  0  0  0  0  0  0  0  0  0  0
  -10.3127    1.4103    0.0000 F   0  0  0  0  0  0  0  0  0  0  0  0
  -13.3043    1.6345    0.0000 F   0  0  0  0  0  0  0  0  0  0  0  0
   -4.3724   -3.5475    0.0000 C   0  0  0  0  0  0  0  0  0  0  0  0
   -3.0209   -2.8966    0.0000 C   0  0  0  0  0  0  0  0  0  0  0  0
  1  2  1  0
  2  3  2  0
  3  4  1  0
  4  5  2  0
  5  6  1  0
  6  7  1  0
  7  8  1  0
  8  9  1  0
  9 10  1  0
 10 11  2  0
 11 12  1  0
 10 13  1  0
 13 14  2  0
 14 15  1  0
 15 16  2  0
 16 17  1  0
 17 18  1  0
 18 19  2  0
 18 20  1  0
 20 21  1  0
 21 22  2  0
 22 23  1  0
 23 24  2  0
 24 25  1  0
 25 26  2  0
 26 27  1  0
 23 28  1  0
 28 29  1  0
 28 30  1  0
 28 31  1  0
 16 32  1  0
 32 33  2  0
 12  2  1  0
 12  6  2  0
 33 13  1  0
 26 21  1  0
M  END
>  <activity_comment>  (72) 
active

>  <activity_id>  (72) 
9622515

>  <activity_properties>  (72) 
[]

>  <assay_chembl_id>  (72) 
CHEMBL1963787

>  <assay_description>  (72) 
PUBCHEM_BIOASSAY: Navigating the Kinome. (Class of assay: other) Panel member name: CAMK2B

>  <assay_type>  (72) 
F

>  <bao_endpoint>  (72) 
BAO_0000192

>  <bao_format>  (72) 
BAO_0000019

>  <bao_label>  (72) 
assay format

>  <canonical_smiles>  (72) 
Nc1ncnc2NCCC(=Nc12)c3ccc(NC(=O)Nc4cc(ccc4F)C(F)(F)F)cc3

>  <data_validity_comment>  (72) 
nan

>  <data_validity_description>  (72) 
nan

>  <document_chembl_id>  (72) 
CHEMBL1201862

>  <document_journal>  (72) 
nan

>  <document_year>  (72) 
nan

>  <ligand_efficiency>  (72) 
nan

>  <molecule_pref_name>  (72) 
nan

>  <parent_molecule_chembl_id>  (72) 
CHEMBL411903

>  <pchembl_value>  (72) 
5.5

>  <potential_duplicate>  (72) 
False

>  <qudt_units>  (72) 
http://www.openphacts.org/units/Nanomolar

>  <record_id>  (72) 
1585101

>  <relation>  (72) 
=

>  <src_id>  (72) 
7

>  <standard_flag>  (72) 
True

>  <standard_relation>  (72) 
=

>  <standard_text_value>  (72) 
nan

>  <standard_type>  (72) 
Ki

>  <standard_units>  (72) 
nM

>  <standard_upper_value>  (72) 
nan

>  <standard_value>  (72) 
3162.28

>  <target_chembl_id>  (72) 
CHEMBL4121

>  <target_organism>  (72) 
Homo sapiens

>  <target_pref_name>  (72) 
CaM kinase II beta

>  <target_tax_id>  (72) 
9606

>  <text_value>  (72) 
nan

>  <toid>  (72) 
nan

>  <type>  (72) 
pKi

>  <units>  (72) 
nan

>  <uo_units>  (72) 
UO_0000065

>  <upper_value>  (72) 
nan

>  <value>  (72) 
5.5

>  <SMILES>  (72) 
Nc1ncnc2NCCC(=Nc12)c3ccc(NC(=O)Nc4cc(ccc4F)C(F)(F)F)cc3

>  <NAME>  (72) 
CHEMBL411903

>  <FILTER>  (72) 
OK

>  <MW>  (72) 
459.407

>  <LogP>  (72) 
4.7971

>  <HBD>  (72) 
4

>  <HBA>  (72) 
6

>  <TPSA>  (72) 
117.32

>  <Label>  (72) 
CAMK2B

$$$$
CHEMBL1965988
     RDKit          2D

 31 34  0  0  0  0  0  0  0  0999 V2000
    8.0406   12.1352    0.0000 C   0  0  0  0  0  0  0  0  0  0  0  0
    7.5771   10.7086    0.0000 C   0  0  0  0  0  0  0  0  0  0  0  0
    8.5808    9.5939    0.0000 C   0  0  0  0  0  0  0  0  0  0  0  0
    8.1173    8.1673    0.0000 C   0  0  0  0  0  0  0  0  0  0  0  0
    6.6501    7.8555    0.0000 C   0  0  0  0  0  0  0  0  0  0  0  0
    5.6464    8.9702    0.0000 C   0  0  0  0  0  0  0  0  0  0  0  0
    4.1791    8.6583    0.0000 N   0  0  0  0  0  0  0  0  0  0  0  0
    3.7156    7.2317    0.0000 C   0  0  0  0  0  0  0  0  0  0  0  0
    4.7193    6.1170    0.0000 O   0  0  0  0  0  0  0  0  0  0  0  0
    2.2484    6.9199    0.0000 N   0  0  0  0  0  0  0  0  0  0  0  0
    1.7849    5.4933    0.0000 C   0  0  0  0  0  0  0  0  0  0  0  0
    0.3177    5.1814    0.0000 C   0  0  0  0  0  0  0  0  0  0  0  0
   -0.1459    3.7548    0.0000 C   0  0  0  0  0  0  0  0  0  0  0  0
    0.8578    2.6401    0.0000 C   0  0  0  0  0  0  0  0  0  0  0  0
    2.3250    2.9520    0.0000 C   0  0  0  0  0  0  0  0  0  0  0  0
    2.7886    4.3786    0.0000 C   0  0  0  0  0  0  0  0  0  0  0  0
    0.3943    1.2135    0.0000 C   0  0  0  0  0  0  0  0  0  0  0  0
    1.2760    0.0000    0.0000 C   0  0  0  0  0  0  0  0  0  0  0  0
    0.3943   -1.2135    0.0000 S   0  0  0  0  0  0  0  0  0  0  0  0
   -1.0323   -0.7500    0.0000 C   0  0  0  0  0  0  0  0  0  0  0  0
   -2.3313   -1.5000    0.0000 C   0  0  0  0  0  0  0  0  0  0  0  0
   -3.6304   -0.7500    0.0000 C   0  0  0  0  0  0  0  0  0  0  0  0
   -3.6304    0.7500    0.0000 N   0  0  0  0  0  0  0  0  0  0  0  0
   -2.3313    1.5000    0.0000 C   0  0  0  0  0  0  0  0  0  0  0  0
   -2.3313    3.0000    0.0000 N   0  0  0  0  0  0  0  0  0  0  0  0
   -1.0323    0.7500    0.0000 C   0  0  0  0  0  0  0  0  0  0  0  0
   -2.3313   -3.0000    0.0000 C   0  0  0  0  0  0  0  0  0  0  0  0
   -2.3313   -4.5000    0.0000 C   0  0  0  0  0  0  0  0  0  0  0  0
   -2.3313   -6.0000    0.0000 C   0  0  0  0  0  0  0  0  0  0  0  0
   -3.6304   -6.7500    0.0000 N   0  0  0  0  0  0  0  0  0  0  0  0
    6.1099   10.3968    0.0000 C   0  0  0  0  0  0  0  0  0  0  0  0
  1  2  1  0
  2  3  2  0
  3  4  1  0
  4  5  2  0
  5  6  1  0
  6  7  1  0
  7  8  1  0
  8  9  2  0
  8 10  1  0
 10 11  1  0
 11 12  2  0
 12 13  1  0
 13 14  2  0
 14 15  1  0
 15 16  2  0
 14 17  1  0
 17 18  2  0
 18 19  1  0
 19 20  1  0
 20 21  2  0
 21 22  1  0
 22 23  2  0
 23 24  1  0
 24 25  1  0
 24 26  2  0
 21 27  1  0
 27 28  3  0
 28 29  1  0
 29 30  1  0
  6 31  2  0
 31  2  1  0
 16 11  1  0
 26 17  1  0
 26 20  1  0
M  END
>  <activity_comment>  (73) 
active

>  <activity_id>  (73) 
9622516

>  <activity_properties>  (73) 
[]

>  <assay_chembl_id>  (73) 
CHEMBL1963787

>  <assay_description>  (73) 
PUBCHEM_BIOASSAY: Navigating the Kinome. (Class of assay: other) Panel member name: CAMK2B

>  <assay_type>  (73) 
F

>  <bao_endpoint>  (73) 
BAO_0000192

>  <bao_format>  (73) 
BAO_0000019

>  <bao_label>  (73) 
assay format

>  <canonical_smiles>  (73) 
Cc1cccc(NC(=O)Nc2ccc(cc2)c3csc4c(cnc(N)c34)C#CCN)c1

>  <data_validity_comment>  (73) 
nan

>  <data_validity_description>  (73) 
nan

>  <document_chembl_id>  (73) 
CHEMBL1201862

>  <document_journal>  (73) 
nan

>  <document_year>  (73) 
nan

>  <ligand_efficiency>  (73) 
nan

>  <molecule_pref_name>  (73) 
nan

>  <parent_molecule_chembl_id>  (73) 
CHEMBL1965988

>  <pchembl_value>  (73) 
5.4

>  <potential_duplicate>  (73) 
False

>  <qudt_units>  (73) 
http://www.openphacts.org/units/Nanomolar

>  <record_id>  (73) 
1584182

>  <relation>  (73) 
=

>  <src_id>  (73) 
7

>  <standard_flag>  (73) 
True

>  <standard_relation>  (73) 
=

>  <standard_text_value>  (73) 
nan

>  <standard_type>  (73) 
Ki

>  <standard_units>  (73) 
nM

>  <standard_upper_value>  (73) 
nan

>  <standard_value>  (73) 
3981.07

>  <target_chembl_id>  (73) 
CHEMBL4121

>  <target_organism>  (73) 
Homo sapiens

>  <target_pref_name>  (73) 
CaM kinase II beta

>  <target_tax_id>  (73) 
9606

>  <text_value>  (73) 
nan

>  <toid>  (73) 
nan

>  <type>  (73) 
pKi

>  <units>  (73) 
nan

>  <uo_units>  (73) 
UO_0000065

>  <upper_value>  (73) 
nan

>  <value>  (73) 
5.4

>  <SMILES>  (73) 
Cc1cccc(NC(=O)Nc2ccc(cc2)c3csc4c(cnc(N)c34)C#CCN)c1

>  <NAME>  (73) 
CHEMBL1965988

>  <FILTER>  (73) 
OK

>  <MW>  (73) 
427.533

>  <LogP>  (73) 
4.80812

>  <HBD>  (73) 
4

>  <HBA>  (73) 
5

>  <TPSA>  (73) 
106.06

>  <Label>  (73) 
CAMK2B

$$$$
CHEMBL422897
     RDKit          2D

 28 31  0  0  0  0  0  0  0  0999 V2000
   -7.5000   -2.5981    0.0000 C   0  0  0  0  0  0  0  0  0  0  0  0
   -6.0000   -2.5981    0.0000 N   0  0  0  0  0  0  0  0  0  0  0  0
   -5.2500   -1.2990    0.0000 C   0  0  0  0  0  0  0  0  0  0  0  0
   -3.7500   -1.2990    0.0000 C   0  0  0  0  0  0  0  0  0  0  0  0
   -3.0000   -2.5981    0.0000 C   0  0  0  0  0  0  0  0  0  0  0  0
   -3.7500   -3.8971    0.0000 C   0  0  0  0  0  0  0  0  0  0  0  0
   -3.0000   -5.1962    0.0000 O   0  0  0  0  0  0  0  0  0  0  0  0
   -5.2500   -3.8971    0.0000 C   0  0  0  0  0  0  0  0  0  0  0  0
   -1.5000   -2.5981    0.0000 C   0  0  0  0  0  0  0  0  0  0  0  0
   -0.7500   -3.8971    0.0000 C   0  0  0  0  0  0  0  0  0  0  0  0
   -1.5000   -5.1962    0.0000 O   0  0  0  0  0  0  0  0  0  0  0  0
    0.7500   -3.8971    0.0000 C   0  0  0  0  0  0  0  0  0  0  0  0
    1.5000   -2.5981    0.0000 C   0  0  0  0  0  0  0  0  0  0  0  0
    3.0000   -2.5981    0.0000 O   0  0  0  0  0  0  0  0  0  0  0  0
    0.7500   -1.2990    0.0000 C   0  0  0  0  0  0  0  0  0  0  0  0
    1.5000    0.0000    0.0000 C   0  0  0  0  0  0  0  0  0  0  0  0
    3.0000    0.0000    0.0000 O   0  0  0  0  0  0  0  0  0  0  0  0
    0.7500    1.2990    0.0000 C   0  0  0  0  0  0  0  0  0  0  0  0
   -0.7500    1.2990    0.0000 C   0  0  0  0  0  0  0  0  0  0  0  0
   -1.5000    0.0000    0.0000 O   0  0  0  0  0  0  0  0  0  0  0  0
   -0.7500   -1.2990    0.0000 C   0  0  0  0  0  0  0  0  0  0  0  0
   -1.5000    2.5981    0.0000 C   0  0  0  0  0  0  0  0  0  0  0  0
   -0.7500    3.8971    0.0000 C   0  0  0  0  0  0  0  0  0  0  0  0
   -1.5000    5.1962    0.0000 C   0  0  0  0  0  0  0  0  0  0  0  0
   -3.0000    5.1962    0.0000 C   0  0  0  0  0  0  0  0  0  0  0  0
   -3.7500    3.8971    0.0000 C   0  0  0  0  0  0  0  0  0  0  0  0
   -3.0000    2.5981    0.0000 C   0  0  0  0  0  0  0  0  0  0  0  0
   -3.7500    1.2990    0.0000 Cl  0  0  0  0  0  0  0  0  0  0  0  0
  1  2  1  0
  2  3  1  0
  3  4  1  0
  4  5  1  0
  5  6  1  0
  6  7  1  0
  6  8  1  0
  5  9  1  0
  9 10  2  0
 10 11  1  0
 10 12  1  0
 12 13  2  0
 13 14  1  0
 13 15  1  0
 15 16  1  0
 16 17  2  0
 16 18  1  0
 18 19  2  0
 19 20  1  0
 20 21  1  0
 19 22  1  0
 22 23  2  0
 23 24  1  0
 24 25  2  0
 25 26  1  0
 26 27  2  0
 27 28  1  0
  8  2  1  0
 21  9  1  0
 21 15  2  0
 27 22  1  0
M  END
>  <activity_comment>  (74) 
active

>  <activity_id>  (74) 
9622517

>  <activity_properties>  (74) 
[]

>  <assay_chembl_id>  (74) 
CHEMBL1963787

>  <assay_description>  (74) 
PUBCHEM_BIOASSAY: Navigating the Kinome. (Class of assay: other) Panel member name: CAMK2B

>  <assay_type>  (74) 
F

>  <bao_endpoint>  (74) 
BAO_0000192

>  <bao_format>  (74) 
BAO_0000019

>  <bao_label>  (74) 
assay format

>  <canonical_smiles>  (74) 
CN1CCC(C(O)C1)c2c(O)cc(O)c3C(=O)C=C(Oc23)c4ccccc4Cl

>  <data_validity_comment>  (74) 
nan

>  <data_validity_description>  (74) 
nan

>  <document_chembl_id>  (74) 
CHEMBL1201862

>  <document_journal>  (74) 
nan

>  <document_year>  (74) 
nan

>  <ligand_efficiency>  (74) 
nan

>  <molecule_pref_name>  (74) 
nan

>  <parent_molecule_chembl_id>  (74) 
CHEMBL422897

>  <pchembl_value>  (74) 
5.3

>  <potential_duplicate>  (74) 
False

>  <qudt_units>  (74) 
http://www.openphacts.org/units/Nanomolar

>  <record_id>  (74) 
1585159

>  <relation>  (74) 
=

>  <src_id>  (74) 
7

>  <standard_flag>  (74) 
True

>  <standard_relation>  (74) 
=

>  <standard_text_value>  (74) 
nan

>  <standard_type>  (74) 
Ki

>  <standard_units>  (74) 
nM

>  <standard_upper_value>  (74) 
nan

>  <standard_value>  (74) 
5011.87

>  <target_chembl_id>  (74) 
CHEMBL4121

>  <target_organism>  (74) 
Homo sapiens

>  <target_pref_name>  (74) 
CaM kinase II beta

>  <target_tax_id>  (74) 
9606

>  <text_value>  (74) 
nan

>  <toid>  (74) 
nan

>  <type>  (74) 
pKi

>  <units>  (74) 
nan

>  <uo_units>  (74) 
UO_0000065

>  <upper_value>  (74) 
nan

>  <value>  (74) 
5.3

>  <SMILES>  (74) 
CN1CCC(C(O)C1)c2c(O)cc(O)c3C(=O)C=C(Oc23)c4ccccc4Cl

>  <NAME>  (74) 
CHEMBL422897

>  <FILTER>  (74) 
OK

>  <MW>  (74) 
401.846

>  <LogP>  (74) 
3.3046

>  <HBD>  (74) 
3

>  <HBA>  (74) 
6

>  <TPSA>  (74) 
94.14

>  <Label>  (74) 
CAMK2B

$$$$
CHEMBL1989646
     RDKit          2D

 23 26  0  0  0  0  0  0  0  0999 V2000
    3.9955   -1.6402    0.0000 C   0  0  0  0  0  0  0  0  0  0  0  0
    2.9918   -2.7549    0.0000 C   0  0  0  0  0  0  0  0  0  0  0  0
    1.5000   -2.5981    0.0000 C   0  0  0  0  0  0  0  0  0  0  0  0
    0.8899   -3.9684    0.0000 N   0  0  0  0  0  0  0  0  0  0  0  0
    2.0046   -4.9721    0.0000 N   0  0  0  0  0  0  0  0  0  0  0  0
    3.3037   -4.2221    0.0000 N   0  0  0  0  0  0  0  0  0  0  0  0
    4.6740   -4.8322    0.0000 C   0  0  0  0  0  0  0  0  0  0  0  0
    4.8308   -6.3240    0.0000 C   0  0  0  0  0  0  0  0  0  0  0  0
    3.6172   -7.2057    0.0000 C   0  0  0  0  0  0  0  0  0  0  0  0
    3.7740   -8.6974    0.0000 C   0  0  0  0  0  0  0  0  0  0  0  0
    5.1443   -9.3075    0.0000 C   0  0  0  0  0  0  0  0  0  0  0  0
    6.3579   -8.4259    0.0000 C   0  0  0  0  0  0  0  0  0  0  0  0
    6.2011   -6.9341    0.0000 C   0  0  0  0  0  0  0  0  0  0  0  0
    0.7500   -1.2990    0.0000 C   0  0  0  0  0  0  0  0  0  0  0  0
    1.5000    0.0000    0.0000 C   0  0  0  0  0  0  0  0  0  0  0  0
    0.7500    1.2990    0.0000 C   0  0  0  0  0  0  0  0  0  0  0  0
   -0.7500    1.2990    0.0000 C   0  0  0  0  0  0  0  0  0  0  0  0
   -1.7537    2.4138    0.0000 N   0  0  0  0  0  0  0  0  0  0  0  0
   -3.1240    1.8037    0.0000 N   0  0  0  0  0  0  0  0  0  0  0  0
   -2.9672    0.3119    0.0000 C   0  0  0  0  0  0  0  0  0  0  0  0
   -4.0819   -0.6918    0.0000 N   0  0  0  0  0  0  0  0  0  0  0  0
   -1.5000    0.0000    0.0000 C   0  0  0  0  0  0  0  0  0  0  0  0
   -0.7500   -1.2990    0.0000 C   0  0  0  0  0  0  0  0  0  0  0  0
  1  2  1  0
  2  3  2  0
  3  4  1  0
  4  5  2  0
  5  6  1  0
  6  7  1  0
  7  8  1  0
  8  9  2  0
  9 10  1  0
 10 11  2  0
 11 12  1  0
 12 13  2  0
  3 14  1  0
 14 15  2  0
 15 16  1  0
 16 17  2  0
 17 18  1  0
 18 19  1  0
 19 20  2  0
 20 21  1  0
 20 22  1  0
 22 23  2  0
  6  2  1  0
 13  8  1  0
 23 14  1  0
 22 17  1  0
M  END
>  <activity_comment>  (75) 
active

>  <activity_id>  (75) 
9622518

>  <activity_properties>  (75) 
[]

>  <assay_chembl_id>  (75) 
CHEMBL1963787

>  <assay_description>  (75) 
PUBCHEM_BIOASSAY: Navigating the Kinome. (Class of assay: other) Panel member name: CAMK2B

>  <assay_type>  (75) 
F

>  <bao_endpoint>  (75) 
BAO_0000192

>  <bao_format>  (75) 
BAO_0000019

>  <bao_label>  (75) 
assay format

>  <canonical_smiles>  (75) 
Cc1c(nnn1Cc2ccccc2)c3ccc4[nH]nc(N)c4c3

>  <data_validity_comment>  (75) 
nan

>  <data_validity_description>  (75) 
nan

>  <document_chembl_id>  (75) 
CHEMBL1201862

>  <document_journal>  (75) 
nan

>  <document_year>  (75) 
nan

>  <ligand_efficiency>  (75) 
nan

>  <molecule_pref_name>  (75) 
nan

>  <parent_molecule_chembl_id>  (75) 
CHEMBL1989646

>  <pchembl_value>  (75) 
5.3

>  <potential_duplicate>  (75) 
False

>  <qudt_units>  (75) 
http://www.openphacts.org/units/Nanomolar

>  <record_id>  (75) 
1584365

>  <relation>  (75) 
=

>  <src_id>  (75) 
7

>  <standard_flag>  (75) 
True

>  <standard_relation>  (75) 
=

>  <standard_text_value>  (75) 
nan

>  <standard_type>  (75) 
Ki

>  <standard_units>  (75) 
nM

>  <standard_upper_value>  (75) 
nan

>  <standard_value>  (75) 
5011.87

>  <target_chembl_id>  (75) 
CHEMBL4121

>  <target_organism>  (75) 
Homo sapiens

>  <target_pref_name>  (75) 
CaM kinase II beta

>  <target_tax_id>  (75) 
9606

>  <text_value>  (75) 
nan

>  <toid>  (75) 
nan

>  <type>  (75) 
pKi

>  <units>  (75) 
nan

>  <uo_units>  (75) 
UO_0000065

>  <upper_value>  (75) 
nan

>  <value>  (75) 
5.3

>  <SMILES>  (75) 
Cc1c(nnn1Cc2ccccc2)c3ccc4[nH]nc(N)c4c3

>  <NAME>  (75) 
CHEMBL1989646

>  <FILTER>  (75) 
OK

>  <MW>  (75) 
304.357

>  <LogP>  (75) 
2.76032

>  <HBD>  (75) 
2

>  <HBA>  (75) 
5

>  <TPSA>  (75) 
85.41

>  <Label>  (75) 
CAMK2B

$$$$
CHEMBL1970522
     RDKit          2D

 23 25  0  0  0  0  0  0  0  0999 V2000
    3.7500   -1.2990    0.0000 C   0  0  0  0  0  0  0  0  0  0  0  0
    3.0000    0.0000    0.0000 O   0  0  0  0  0  0  0  0  0  0  0  0
    1.5000    0.0000    0.0000 C   0  0  0  0  0  0  0  0  0  0  0  0
    0.7500   -1.2990    0.0000 C   0  0  0  0  0  0  0  0  0  0  0  0
   -0.7500   -1.2990    0.0000 C   0  0  0  0  0  0  0  0  0  0  0  0
   -1.5000   -2.5981    0.0000 C   0  0  0  0  0  0  0  0  0  0  0  0
   -3.0000   -2.5981    0.0000 C   0  0  0  0  0  0  0  0  0  0  0  0
   -3.8817   -3.8116    0.0000 S   0  0  0  0  0  0  0  0  0  0  0  0
   -5.3083   -3.3481    0.0000 C   0  0  0  0  0  0  0  0  0  0  0  0
   -6.5218   -4.2298    0.0000 N   0  0  0  0  0  0  0  0  0  0  0  0
   -7.8921   -3.6196    0.0000 C   0  0  0  0  0  0  0  0  0  0  0  0
   -8.0489   -2.1279    0.0000 C   0  0  0  0  0  0  0  0  0  0  0  0
   -9.4192   -1.5178    0.0000 C   0  0  0  0  0  0  0  0  0  0  0  0
  -10.6327   -2.3994    0.0000 C   0  0  0  0  0  0  0  0  0  0  0  0
  -10.4760   -3.8912    0.0000 C   0  0  0  0  0  0  0  0  0  0  0  0
   -9.1056   -4.5013    0.0000 C   0  0  0  0  0  0  0  0  0  0  0  0
   -5.3083   -1.8481    0.0000 N   0  0  0  0  0  0  0  0  0  0  0  0
   -3.8817   -1.3846    0.0000 C   0  0  0  0  0  0  0  0  0  0  0  0
   -3.4182    0.0420    0.0000 O   0  0  0  0  0  0  0  0  0  0  0  0
   -1.5000    0.0000    0.0000 C   0  0  0  0  0  0  0  0  0  0  0  0
   -0.7500    1.2990    0.0000 C   0  0  0  0  0  0  0  0  0  0  0  0
    0.7500    1.2990    0.0000 C   0  0  0  0  0  0  0  0  0  0  0  0
    1.5000    2.5981    0.0000 O   0  0  0  0  0  0  0  0  0  0  0  0
  1  2  1  0
  2  3  1  0
  3  4  2  0
  4  5  1  0
  5  6  1  0
  6  7  2  3
  7  8  1  0
  8  9  1  0
  9 10  2  3
 10 11  1  0
 11 12  2  0
 12 13  1  0
 13 14  2  0
 14 15  1  0
 15 16  2  0
  9 17  1  0
 17 18  1  0
 18 19  2  0
  5 20  2  0
 20 21  1  0
 21 22  2  0
 22 23  1  0
 22  3  1  0
 18  7  1  0
 16 11  1  0
M  END
>  <activity_comment>  (76) 
active

>  <activity_id>  (76) 
9622523

>  <activity_properties>  (76) 
[]

>  <assay_chembl_id>  (76) 
CHEMBL1963787

>  <assay_description>  (76) 
PUBCHEM_BIOASSAY: Navigating the Kinome. (Class of assay: other) Panel member name: CAMK2B

>  <assay_type>  (76) 
F

>  <bao_endpoint>  (76) 
BAO_0000192

>  <bao_format>  (76) 
BAO_0000019

>  <bao_label>  (76) 
assay format

>  <canonical_smiles>  (76) 
COc1cc(C=C2SC(=Nc3ccccc3)NC2=O)ccc1O

>  <data_validity_comment>  (76) 
nan

>  <data_validity_description>  (76) 
nan

>  <document_chembl_id>  (76) 
CHEMBL1201862

>  <document_journal>  (76) 
nan

>  <document_year>  (76) 
nan

>  <ligand_efficiency>  (76) 
nan

>  <molecule_pref_name>  (76) 
nan

>  <parent_molecule_chembl_id>  (76) 
CHEMBL1970522

>  <pchembl_value>  (76) 
5.4

>  <potential_duplicate>  (76) 
False

>  <qudt_units>  (76) 
http://www.openphacts.org/units/Nanomolar

>  <record_id>  (76) 
1585091

>  <relation>  (76) 
=

>  <src_id>  (76) 
7

>  <standard_flag>  (76) 
True

>  <standard_relation>  (76) 
=

>  <standard_text_value>  (76) 
nan

>  <standard_type>  (76) 
Ki

>  <standard_units>  (76) 
nM

>  <standard_upper_value>  (76) 
nan

>  <standard_value>  (76) 
3981.07

>  <target_chembl_id>  (76) 
CHEMBL4121

>  <target_organism>  (76) 
Homo sapiens

>  <target_pref_name>  (76) 
CaM kinase II beta

>  <target_tax_id>  (76) 
9606

>  <text_value>  (76) 
nan

>  <toid>  (76) 
nan

>  <type>  (76) 
pKi

>  <units>  (76) 
nan

>  <uo_units>  (76) 
UO_0000065

>  <upper_value>  (76) 
nan

>  <value>  (76) 
5.4

>  <SMILES>  (76) 
COc1cc(C=C2SC(=Nc3ccccc3)NC2=O)ccc1O

>  <NAME>  (76) 
CHEMBL1970522

>  <FILTER>  (76) 
OK

>  <MW>  (76) 
326.377

>  <LogP>  (76) 
3.2924

>  <HBD>  (76) 
2

>  <HBA>  (76) 
5

>  <TPSA>  (76) 
70.92

>  <Label>  (76) 
CAMK2B

$$$$
CHEMBL1990415
     RDKit          2D

 22 25  0  0  0  0  0  0  0  0999 V2000
   -1.8373   -8.2581    0.0000 O   0  0  0  0  0  0  0  0  0  0  0  0
   -2.9520   -7.2544    0.0000 C   0  0  0  0  0  0  0  0  0  0  0  0
   -2.6401   -5.7872    0.0000 N   0  0  0  0  0  0  0  0  0  0  0  0
   -1.2135   -5.3237    0.0000 C   0  0  0  0  0  0  0  0  0  0  0  0
   -0.0000   -6.2054    0.0000 N   0  0  0  0  0  0  0  0  0  0  0  0
    1.2135   -5.3237    0.0000 N   0  0  0  0  0  0  0  0  0  0  0  0
    0.7500   -3.8971    0.0000 C   0  0  0  0  0  0  0  0  0  0  0  0
    1.5000   -2.5981    0.0000 N   0  0  0  0  0  0  0  0  0  0  0  0
    0.7500   -1.2990    0.0000 C   0  0  0  0  0  0  0  0  0  0  0  0
    1.5000    0.0000    0.0000 C   0  0  0  0  0  0  0  0  0  0  0  0
    0.7500    1.2990    0.0000 C   0  0  0  0  0  0  0  0  0  0  0  0
   -0.7500    1.2990    0.0000 C   0  0  0  0  0  0  0  0  0  0  0  0
   -1.5000    0.0000    0.0000 C   0  0  0  0  0  0  0  0  0  0  0  0
   -0.7500   -1.2990    0.0000 C   0  0  0  0  0  0  0  0  0  0  0  0
   -1.5000   -2.5981    0.0000 C   0  0  0  0  0  0  0  0  0  0  0  0
   -0.7500   -3.8971    0.0000 C   0  0  0  0  0  0  0  0  0  0  0  0
   -4.3786   -7.7180    0.0000 C   0  0  0  0  0  0  0  0  0  0  0  0
   -5.4933   -6.7143    0.0000 C   0  0  0  0  0  0  0  0  0  0  0  0
   -6.9199   -7.1778    0.0000 C   0  0  0  0  0  0  0  0  0  0  0  0
   -7.2317   -8.6450    0.0000 N   0  0  0  0  0  0  0  0  0  0  0  0
   -6.1170   -9.6487    0.0000 C   0  0  0  0  0  0  0  0  0  0  0  0
   -4.6904   -9.1852    0.0000 C   0  0  0  0  0  0  0  0  0  0  0  0
  1  2  2  0
  2  3  1  0
  3  4  1  0
  4  5  2  0
  5  6  1  0
  6  7  1  0
  7  8  2  0
  8  9  1  0
  9 10  2  0
 10 11  1  0
 11 12  2  0
 12 13  1  0
 13 14  2  0
 14 15  1  0
 15 16  2  0
  2 17  1  0
 17 18  2  0
 18 19  1  0
 19 20  2  0
 20 21  1  0
 21 22  2  0
 16  4  1  0
 16  7  1  0
 14  9  1  0
 22 17  1  0
M  END
>  <activity_comment>  (77) 
active

>  <activity_id>  (77) 
9622525

>  <activity_properties>  (77) 
[]

>  <assay_chembl_id>  (77) 
CHEMBL1963787

>  <assay_description>  (77) 
PUBCHEM_BIOASSAY: Navigating the Kinome. (Class of assay: other) Panel member name: CAMK2B

>  <assay_type>  (77) 
F

>  <bao_endpoint>  (77) 
BAO_0000192

>  <bao_format>  (77) 
BAO_0000019

>  <bao_label>  (77) 
assay format

>  <canonical_smiles>  (77) 
O=C(Nc1n[nH]c2nc3ccccc3cc12)c4ccncc4

>  <data_validity_comment>  (77) 
nan

>  <data_validity_description>  (77) 
nan

>  <document_chembl_id>  (77) 
CHEMBL1201862

>  <document_journal>  (77) 
nan

>  <document_year>  (77) 
nan

>  <ligand_efficiency>  (77) 
nan

>  <molecule_pref_name>  (77) 
nan

>  <parent_molecule_chembl_id>  (77) 
CHEMBL1990415

>  <pchembl_value>  (77) 
5.4

>  <potential_duplicate>  (77) 
False

>  <qudt_units>  (77) 
http://www.openphacts.org/units/Nanomolar

>  <record_id>  (77) 
1585259

>  <relation>  (77) 
=

>  <src_id>  (77) 
7

>  <standard_flag>  (77) 
True

>  <standard_relation>  (77) 
=

>  <standard_text_value>  (77) 
nan

>  <standard_type>  (77) 
Ki

>  <standard_units>  (77) 
nM

>  <standard_upper_value>  (77) 
nan

>  <standard_value>  (77) 
3981.07

>  <target_chembl_id>  (77) 
CHEMBL4121

>  <target_organism>  (77) 
Homo sapiens

>  <target_pref_name>  (77) 
CaM kinase II beta

>  <target_tax_id>  (77) 
9606

>  <text_value>  (77) 
nan

>  <toid>  (77) 
nan

>  <type>  (77) 
pKi

>  <units>  (77) 
nan

>  <uo_units>  (77) 
UO_0000065

>  <upper_value>  (77) 
nan

>  <value>  (77) 
5.4

>  <SMILES>  (77) 
O=C(Nc1n[nH]c2nc3ccccc3cc12)c4ccncc4

>  <NAME>  (77) 
CHEMBL1990415

>  <FILTER>  (77) 
OK

>  <MW>  (77) 
289.298

>  <LogP>  (77) 
2.7584

>  <HBD>  (77) 
2

>  <HBA>  (77) 
4

>  <TPSA>  (77) 
83.56

>  <Label>  (77) 
CAMK2B

$$$$
CHEMBL1964692
     RDKit          2D

 31 34  0  0  0  0  0  0  0  0999 V2000
   -4.0819    0.6918    0.0000 C   0  0  0  0  0  0  0  0  0  0  0  0
   -2.9672   -0.3119    0.0000 N   0  0  0  0  0  0  0  0  0  0  0  0
   -3.1240   -1.8037    0.0000 N   0  0  0  0  0  0  0  0  0  0  0  0
   -1.7537   -2.4138    0.0000 C   0  0  0  0  0  0  0  0  0  0  0  0
   -1.4418   -3.8810    0.0000 N   0  0  0  0  0  0  0  0  0  0  0  0
   -0.7500   -1.2990    0.0000 C   0  0  0  0  0  0  0  0  0  0  0  0
    0.7500   -1.2990    0.0000 C   0  0  0  0  0  0  0  0  0  0  0  0
    1.5000    0.0000    0.0000 C   0  0  0  0  0  0  0  0  0  0  0  0
    0.7500    1.2990    0.0000 N   0  0  0  0  0  0  0  0  0  0  0  0
   -0.7500    1.2990    0.0000 C   0  0  0  0  0  0  0  0  0  0  0  0
   -1.5000    0.0000    0.0000 C   0  0  0  0  0  0  0  0  0  0  0  0
    1.5000   -2.5981    0.0000 C   0  0  0  0  0  0  0  0  0  0  0  0
    0.7500   -3.8971    0.0000 C   0  0  0  0  0  0  0  0  0  0  0  0
    1.5000   -5.1962    0.0000 C   0  0  0  0  0  0  0  0  0  0  0  0
    3.0000   -5.1962    0.0000 C   0  0  0  0  0  0  0  0  0  0  0  0
    3.7500   -6.4952    0.0000 N   0  0  0  0  0  0  0  0  0  0  0  0
    3.0000   -7.7942    0.0000 C   0  0  0  0  0  0  0  0  0  0  0  0
    1.5000   -7.7942    0.0000 O   0  0  0  0  0  0  0  0  0  0  0  0
    3.7500   -9.0933    0.0000 N   0  0  0  0  0  0  0  0  0  0  0  0
    3.0000  -10.3923    0.0000 C   0  0  0  0  0  0  0  0  0  0  0  0
    1.5000  -10.3923    0.0000 C   0  0  0  0  0  0  0  0  0  0  0  0
    0.7500  -11.6913    0.0000 C   0  0  0  0  0  0  0  0  0  0  0  0
    1.5000  -12.9904    0.0000 C   0  0  0  0  0  0  0  0  0  0  0  0
    3.0000  -12.9904    0.0000 C   0  0  0  0  0  0  0  0  0  0  0  0
    3.7500  -11.6913    0.0000 C   0  0  0  0  0  0  0  0  0  0  0  0
    3.7500  -14.2894    0.0000 C   0  0  0  0  0  0  0  0  0  0  0  0
    4.5000  -15.5885    0.0000 F   0  0  0  0  0  0  0  0  0  0  0  0
    2.4510  -15.0394    0.0000 F   0  0  0  0  0  0  0  0  0  0  0  0
    5.0490  -13.5394    0.0000 F   0  0  0  0  0  0  0  0  0  0  0  0
    3.7500   -3.8971    0.0000 C   0  0  0  0  0  0  0  0  0  0  0  0
    3.0000   -2.5981    0.0000 C   0  0  0  0  0  0  0  0  0  0  0  0
  1  2  1  0
  2  3  1  0
  3  4  2  0
  4  5  1  0
  4  6  1  0
  6  7  2  0
  7  8  1  0
  8  9  2  0
  9 10  1  0
 10 11  2  0
  7 12  1  0
 12 13  2  0
 13 14  1  0
 14 15  2  0
 15 16  1  0
 16 17  1  0
 17 18  2  0
 17 19  1  0
 19 20  1  0
 20 21  2  0
 21 22  1  0
 22 23  2  0
 23 24  1  0
 24 25  2  0
 24 26  1  0
 26 27  1  0
 26 28  1  0
 26 29  1  0
 15 30  1  0
 30 31  2  0
 11  2  1  0
 11  6  1  0
 31 12  1  0
 25 20  1  0
M  END
>  <activity_comment>  (78) 
active

>  <activity_id>  (78) 
9622527

>  <activity_properties>  (78) 
[]

>  <assay_chembl_id>  (78) 
CHEMBL1963787

>  <assay_description>  (78) 
PUBCHEM_BIOASSAY: Navigating the Kinome. (Class of assay: other) Panel member name: CAMK2B

>  <assay_type>  (78) 
F

>  <bao_endpoint>  (78) 
BAO_0000192

>  <bao_format>  (78) 
BAO_0000019

>  <bao_label>  (78) 
assay format

>  <canonical_smiles>  (78) 
Cn1nc(N)c2c(cncc12)c3ccc(NC(=O)Nc4cccc(c4)C(F)(F)F)cc3

>  <data_validity_comment>  (78) 
nan

>  <data_validity_description>  (78) 
nan

>  <document_chembl_id>  (78) 
CHEMBL1201862

>  <document_journal>  (78) 
nan

>  <document_year>  (78) 
nan

>  <ligand_efficiency>  (78) 
nan

>  <molecule_pref_name>  (78) 
nan

>  <parent_molecule_chembl_id>  (78) 
CHEMBL1964692

>  <pchembl_value>  (78) 
5.4

>  <potential_duplicate>  (78) 
False

>  <qudt_units>  (78) 
http://www.openphacts.org/units/Nanomolar

>  <record_id>  (78) 
1584248

>  <relation>  (78) 
=

>  <src_id>  (78) 
7

>  <standard_flag>  (78) 
True

>  <standard_relation>  (78) 
=

>  <standard_text_value>  (78) 
nan

>  <standard_type>  (78) 
Ki

>  <standard_units>  (78) 
nM

>  <standard_upper_value>  (78) 
nan

>  <standard_value>  (78) 
3981.07

>  <target_chembl_id>  (78) 
CHEMBL4121

>  <target_organism>  (78) 
Homo sapiens

>  <target_pref_name>  (78) 
CaM kinase II beta

>  <target_tax_id>  (78) 
9606

>  <text_value>  (78) 
nan

>  <toid>  (78) 
nan

>  <type>  (78) 
pKi

>  <units>  (78) 
nan

>  <uo_units>  (78) 
UO_0000065

>  <upper_value>  (78) 
nan

>  <value>  (78) 
5.4

>  <SMILES>  (78) 
Cn1nc(N)c2c(cncc12)c3ccc(NC(=O)Nc4cccc(c4)C(F)(F)F)cc3

>  <NAME>  (78) 
CHEMBL1964692

>  <FILTER>  (78) 
OK

>  <MW>  (78) 
426.402

>  <LogP>  (78) 
4.8803

>  <HBD>  (78) 
3

>  <HBA>  (78) 
5

>  <TPSA>  (78) 
97.86

>  <Label>  (78) 
CAMK2B

$$$$
CHEMBL482967
     RDKit          2D

 26 29  0  0  0  0  0  0  0  0999 V2000
   -0.5773   -4.2803    0.0000 C   0  0  0  0  0  0  0  0  0  0  0  0
    0.8899   -3.9684    0.0000 C   0  0  0  0  0  0  0  0  0  0  0  0
    2.0046   -4.9721    0.0000 N   0  0  0  0  0  0  0  0  0  0  0  0
    3.3037   -4.2221    0.0000 C   0  0  0  0  0  0  0  0  0  0  0  0
    4.6740   -4.8322    0.0000 N   0  0  0  0  0  0  0  0  0  0  0  0
    2.9918   -2.7549    0.0000 S   0  0  0  0  0  0  0  0  0  0  0  0
    1.5000   -2.5981    0.0000 C   0  0  0  0  0  0  0  0  0  0  0  0
    0.7500   -1.2990    0.0000 C   0  0  0  0  0  0  0  0  0  0  0  0
    1.5000    0.0000    0.0000 C   0  0  0  0  0  0  0  0  0  0  0  0
    0.7500    1.2990    0.0000 C   0  0  0  0  0  0  0  0  0  0  0  0
   -0.7500    1.2990    0.0000 N   0  0  0  0  0  0  0  0  0  0  0  0
   -1.5000    0.0000    0.0000 C   0  0  0  0  0  0  0  0  0  0  0  0
   -3.0000    0.0000    0.0000 N   0  0  0  0  0  0  0  0  0  0  0  0
   -3.7500    1.2990    0.0000 C   0  0  0  0  0  0  0  0  0  0  0  0
   -3.0000    2.5981    0.0000 C   0  0  0  0  0  0  0  0  0  0  0  0
   -3.7500    3.8971    0.0000 C   0  0  0  0  0  0  0  0  0  0  0  0
   -5.2500    3.8971    0.0000 C   0  0  0  0  0  0  0  0  0  0  0  0
   -6.0000    2.5981    0.0000 C   0  0  0  0  0  0  0  0  0  0  0  0
   -5.2500    1.2990    0.0000 C   0  0  0  0  0  0  0  0  0  0  0  0
   -6.0000    5.1962    0.0000 N   0  0  0  0  0  0  0  0  0  0  0  0
   -5.2500    6.4952    0.0000 C   0  0  0  0  0  0  0  0  0  0  0  0
   -6.0000    7.7942    0.0000 C   0  0  0  0  0  0  0  0  0  0  0  0
   -7.5000    7.7942    0.0000 O   0  0  0  0  0  0  0  0  0  0  0  0
   -8.2500    6.4952    0.0000 C   0  0  0  0  0  0  0  0  0  0  0  0
   -7.5000    5.1962    0.0000 C   0  0  0  0  0  0  0  0  0  0  0  0
   -0.7500   -1.2990    0.0000 N   0  0  0  0  0  0  0  0  0  0  0  0
  1  2  1  0
  2  3  1  0
  3  4  2  0
  4  5  1  0
  4  6  1  0
  6  7  1  0
  7  8  1  0
  8  9  2  0
  9 10  1  0
 10 11  2  0
 11 12  1  0
 12 13  1  0
 13 14  1  0
 14 15  2  0
 15 16  1  0
 16 17  2  0
 17 18  1  0
 18 19  2  0
 17 20  1  0
 20 21  1  0
 21 22  1  0
 22 23  1  0
 23 24  1  0
 24 25  1  0
 12 26  2  0
  7  2  2  0
 26  8  1  0
 19 14  1  0
 25 20  1  0
M  END
>  <activity_comment>  (79) 
active

>  <activity_id>  (79) 
9622534

>  <activity_properties>  (79) 
[]

>  <assay_chembl_id>  (79) 
CHEMBL1963787

>  <assay_description>  (79) 
PUBCHEM_BIOASSAY: Navigating the Kinome. (Class of assay: other) Panel member name: CAMK2B

>  <assay_type>  (79) 
F

>  <bao_endpoint>  (79) 
BAO_0000192

>  <bao_format>  (79) 
BAO_0000019

>  <bao_label>  (79) 
assay format

>  <canonical_smiles>  (79) 
Cc1nc(N)sc1c2ccnc(Nc3ccc(cc3)N4CCOCC4)n2

>  <data_validity_comment>  (79) 
nan

>  <data_validity_description>  (79) 
nan

>  <document_chembl_id>  (79) 
CHEMBL1201862

>  <document_journal>  (79) 
nan

>  <document_year>  (79) 
nan

>  <ligand_efficiency>  (79) 
nan

>  <molecule_pref_name>  (79) 
CYC-116

>  <parent_molecule_chembl_id>  (79) 
CHEMBL482967

>  <pchembl_value>  (79) 
5.3

>  <potential_duplicate>  (79) 
False

>  <qudt_units>  (79) 
http://www.openphacts.org/units/Nanomolar

>  <record_id>  (79) 
1584285

>  <relation>  (79) 
=

>  <src_id>  (79) 
7

>  <standard_flag>  (79) 
True

>  <standard_relation>  (79) 
=

>  <standard_text_value>  (79) 
nan

>  <standard_type>  (79) 
Ki

>  <standard_units>  (79) 
nM

>  <standard_upper_value>  (79) 
nan

>  <standard_value>  (79) 
5011.87

>  <target_chembl_id>  (79) 
CHEMBL4121

>  <target_organism>  (79) 
Homo sapiens

>  <target_pref_name>  (79) 
CaM kinase II beta

>  <target_tax_id>  (79) 
9606

>  <text_value>  (79) 
nan

>  <toid>  (79) 
nan

>  <type>  (79) 
pKi

>  <units>  (79) 
nan

>  <uo_units>  (79) 
UO_0000065

>  <upper_value>  (79) 
nan

>  <value>  (79) 
5.3

>  <SMILES>  (79) 
Cc1nc(N)sc1c2ccnc(Nc3ccc(cc3)N4CCOCC4)n2

>  <NAME>  (79) 
CHEMBL482967

>  <FILTER>  (79) 
OK

>  <MW>  (79) 
368.466

>  <LogP>  (79) 
3.07092

>  <HBD>  (79) 
2

>  <HBA>  (79) 
8

>  <TPSA>  (79) 
89.19

>  <Label>  (79) 
CAMK2B

$$$$
CHEMBL458997
     RDKit          2D

 33 36  0  0  0  0  0  0  0  0999 V2000
    5.2500   -1.2990    0.0000 C   0  0  0  0  0  0  0  0  0  0  0  0
    3.7500   -1.2990    0.0000 N   0  0  0  0  0  0  0  0  0  0  0  0
    3.0000    0.0000    0.0000 C   0  0  0  0  0  0  0  0  0  0  0  0
    3.7500    1.2990    0.0000 O   0  0  0  0  0  0  0  0  0  0  0  0
    1.5000    0.0000    0.0000 C   0  0  0  0  0  0  0  0  0  0  0  0
    0.7500   -1.2990    0.0000 C   0  0  0  0  0  0  0  0  0  0  0  0
   -0.7500   -1.2990    0.0000 C   0  0  0  0  0  0  0  0  0  0  0  0
   -1.5000    0.0000    0.0000 C   0  0  0  0  0  0  0  0  0  0  0  0
   -0.7500    1.2990    0.0000 C   0  0  0  0  0  0  0  0  0  0  0  0
    0.7500    1.2990    0.0000 C   0  0  0  0  0  0  0  0  0  0  0  0
    1.5000    2.5981    0.0000 N   0  0  0  0  0  0  0  0  0  0  0  0
    0.7500    3.8971    0.0000 C   0  0  0  0  0  0  0  0  0  0  0  0
    1.5000    5.1962    0.0000 N   0  0  0  0  0  0  0  0  0  0  0  0
    0.7500    6.4952    0.0000 C   0  0  0  0  0  0  0  0  0  0  0  0
    1.5000    7.7942    0.0000 N   0  0  0  0  0  0  0  0  0  0  0  0
    3.0000    7.7942    0.0000 C   0  0  0  0  0  0  0  0  0  0  0  0
    3.7500    6.4952    0.0000 C   0  0  0  0  0  0  0  0  0  0  0  0
    5.2500    6.4952    0.0000 C   0  0  0  0  0  0  0  0  0  0  0  0
    6.0000    7.7942    0.0000 C   0  0  0  0  0  0  0  0  0  0  0  0
    5.2500    9.0933    0.0000 C   0  0  0  0  0  0  0  0  0  0  0  0
    3.7500    9.0933    0.0000 C   0  0  0  0  0  0  0  0  0  0  0  0
    3.0000   10.3923    0.0000 O   0  0  0  0  0  0  0  0  0  0  0  0
    3.7500   11.6913    0.0000 C   0  0  0  0  0  0  0  0  0  0  0  0
    7.5000    7.7942    0.0000 N   0  0  0  0  0  0  0  0  0  0  0  0
    8.2500    6.4952    0.0000 C   0  0  0  0  0  0  0  0  0  0  0  0
    9.7500    6.4952    0.0000 C   0  0  0  0  0  0  0  0  0  0  0  0
   10.5000    7.7942    0.0000 O   0  0  0  0  0  0  0  0  0  0  0  0
    9.7500    9.0933    0.0000 C   0  0  0  0  0  0  0  0  0  0  0  0
    8.2500    9.0933    0.0000 C   0  0  0  0  0  0  0  0  0  0  0  0
   -0.7500    6.4952    0.0000 N   0  0  0  0  0  0  0  0  0  0  0  0
   -1.5000    5.1962    0.0000 C   0  0  0  0  0  0  0  0  0  0  0  0
   -0.7500    3.8971    0.0000 C   0  0  0  0  0  0  0  0  0  0  0  0
   -1.5000    2.5981    0.0000 Cl  0  0  0  0  0  0  0  0  0  0  0  0
  1  2  1  0
  2  3  1  0
  3  4  2  0
  3  5  1  0
  5  6  2  0
  6  7  1  0
  7  8  2  0
  8  9  1  0
  9 10  2  0
 10 11  1  0
 11 12  1  0
 12 13  2  0
 13 14  1  0
 14 15  1  0
 15 16  1  0
 16 17  2  0
 17 18  1  0
 18 19  2  0
 19 20  1  0
 20 21  2  0
 21 22  1  0
 22 23  1  0
 19 24  1  0
 24 25  1  0
 25 26  1  0
 26 27  1  0
 27 28  1  0
 28 29  1  0
 14 30  2  0
 30 31  1  0
 31 32  2  0
 32 33  1  0
 10  5  1  0
 32 12  1  0
 21 16  1  0
 29 24  1  0
M  END
>  <activity_comment>  (80) 
active

>  <activity_id>  (80) 
9622538

>  <activity_properties>  (80) 
[]

>  <assay_chembl_id>  (80) 
CHEMBL1963787

>  <assay_description>  (80) 
PUBCHEM_BIOASSAY: Navigating the Kinome. (Class of assay: other) Panel member name: CAMK2B

>  <assay_type>  (80) 
F

>  <bao_endpoint>  (80) 
BAO_0000192

>  <bao_format>  (80) 
BAO_0000019

>  <bao_label>  (80) 
assay format

>  <canonical_smiles>  (80) 
CNC(=O)c1ccccc1Nc2nc(Nc3ccc(cc3OC)N4CCOCC4)ncc2Cl

>  <data_validity_comment>  (80) 
nan

>  <data_validity_description>  (80) 
nan

>  <document_chembl_id>  (80) 
CHEMBL1201862

>  <document_journal>  (80) 
nan

>  <document_year>  (80) 
nan

>  <ligand_efficiency>  (80) 
nan

>  <molecule_pref_name>  (80) 
nan

>  <parent_molecule_chembl_id>  (80) 
CHEMBL458997

>  <pchembl_value>  (80) 
5.2

>  <potential_duplicate>  (80) 
False

>  <qudt_units>  (80) 
http://www.openphacts.org/units/Nanomolar

>  <record_id>  (80) 
1584483

>  <relation>  (80) 
=

>  <src_id>  (80) 
7

>  <standard_flag>  (80) 
True

>  <standard_relation>  (80) 
=

>  <standard_text_value>  (80) 
nan

>  <standard_type>  (80) 
Ki

>  <standard_units>  (80) 
nM

>  <standard_upper_value>  (80) 
nan

>  <standard_value>  (80) 
6309.57

>  <target_chembl_id>  (80) 
CHEMBL4121

>  <target_organism>  (80) 
Homo sapiens

>  <target_pref_name>  (80) 
CaM kinase II beta

>  <target_tax_id>  (80) 
9606

>  <text_value>  (80) 
nan

>  <toid>  (80) 
nan

>  <type>  (80) 
pKi

>  <units>  (80) 
nan

>  <uo_units>  (80) 
UO_0000065

>  <upper_value>  (80) 
nan

>  <value>  (80) 
5.2

>  <SMILES>  (80) 
CNC(=O)c1ccccc1Nc2nc(Nc3ccc(cc3OC)N4CCOCC4)ncc2Cl

>  <NAME>  (80) 
CHEMBL458997

>  <FILTER>  (80) 
OK

>  <MW>  (80) 
468.945

>  <LogP>  (80) 
3.822

>  <HBD>  (80) 
3

>  <HBA>  (80) 
8

>  <TPSA>  (80) 
100.64

>  <Label>  (80) 
CAMK2B

$$$$
CHEMBL1965836
     RDKit          2D

 32 35  0  0  0  0  0  0  0  0999 V2000
   -2.6401   -3.1891    0.0000 C   0  0  0  0  0  0  0  0  0  0  0  0
   -1.2135   -2.7256    0.0000 C   0  0  0  0  0  0  0  0  0  0  0  0
   -0.0000   -3.6073    0.0000 N   0  0  0  0  0  0  0  0  0  0  0  0
    1.2135   -2.7256    0.0000 N   0  0  0  0  0  0  0  0  0  0  0  0
    0.7500   -1.2990    0.0000 C   0  0  0  0  0  0  0  0  0  0  0  0
    1.5000    0.0000    0.0000 C   0  0  0  0  0  0  0  0  0  0  0  0
    0.7500    1.2990    0.0000 C   0  0  0  0  0  0  0  0  0  0  0  0
   -0.7500    1.2990    0.0000 C   0  0  0  0  0  0  0  0  0  0  0  0
   -1.5000    0.0000    0.0000 C   0  0  0  0  0  0  0  0  0  0  0  0
   -0.7500   -1.2990    0.0000 C   0  0  0  0  0  0  0  0  0  0  0  0
   -1.5000    2.5981    0.0000 C   0  0  0  0  0  0  0  0  0  0  0  0
   -0.7500    3.8971    0.0000 C   0  0  0  0  0  0  0  0  0  0  0  0
   -1.5000    5.1962    0.0000 N   0  0  0  0  0  0  0  0  0  0  0  0
   -3.0000    5.1962    0.0000 C   0  0  0  0  0  0  0  0  0  0  0  0
   -3.7500    3.8971    0.0000 C   0  0  0  0  0  0  0  0  0  0  0  0
   -5.2500    3.8971    0.0000 O   0  0  0  0  0  0  0  0  0  0  0  0
   -6.0000    5.1962    0.0000 C   0  0  0  0  0  0  0  0  0  0  0  0
   -7.5000    5.1962    0.0000 C   0  0  0  0  0  0  0  0  0  0  0  0
   -8.2500    3.8971    0.0000 N   0  0  0  0  0  0  0  0  0  0  0  0
   -8.2500    6.4952    0.0000 C   0  0  0  0  0  0  0  0  0  0  0  0
   -9.7500    6.4952    0.0000 C   0  0  0  0  0  0  0  0  0  0  0  0
  -10.5000    7.7942    0.0000 C   0  0  0  0  0  0  0  0  0  0  0  0
  -12.0000    7.7942    0.0000 C   0  0  0  0  0  0  0  0  0  0  0  0
  -12.7500    6.4952    0.0000 C   0  0  0  0  0  0  0  0  0  0  0  0
  -12.0000    5.1962    0.0000 C   0  0  0  0  0  0  0  0  0  0  0  0
  -12.7500    3.8971    0.0000 O   0  0  0  0  0  0  0  0  0  0  0  0
  -14.2500    3.8971    0.0000 C   0  0  0  0  0  0  0  0  0  0  0  0
  -15.7500    3.8971    0.0000 F   0  0  0  0  0  0  0  0  0  0  0  0
  -14.2500    2.3971    0.0000 F   0  0  0  0  0  0  0  0  0  0  0  0
  -14.2500    5.3971    0.0000 F   0  0  0  0  0  0  0  0  0  0  0  0
  -10.5000    5.1962    0.0000 C   0  0  0  0  0  0  0  0  0  0  0  0
   -3.0000    2.5981    0.0000 C   0  0  0  0  0  0  0  0  0  0  0  0
  1  2  1  0
  2  3  2  0
  3  4  1  0
  4  5  1  0
  5  6  2  0
  6  7  1  0
  7  8  2  0
  8  9  1  0
  9 10  2  0
  8 11  1  0
 11 12  2  0
 12 13  1  0
 13 14  2  0
 14 15  1  0
 15 16  1  0
 16 17  1  0
 17 18  1  0
 18 19  1  0
 18 20  1  0
 20 21  1  0
 21 22  2  0
 22 23  1  0
 23 24  2  0
 24 25  1  0
 25 26  1  0
 26 27  1  0
 27 28  1  0
 27 29  1  0
 27 30  1  0
 25 31  2  0
 15 32  2  0
 10  2  1  0
 10  5  1  0
 32 11  1  0
 31 21  1  0
M  END
>  <activity_comment>  (81) 
active

>  <activity_id>  (81) 
9622539

>  <activity_properties>  (81) 
[]

>  <assay_chembl_id>  (81) 
CHEMBL1963787

>  <assay_description>  (81) 
PUBCHEM_BIOASSAY: Navigating the Kinome. (Class of assay: other) Panel member name: CAMK2B

>  <assay_type>  (81) 
F

>  <bao_endpoint>  (81) 
BAO_0000192

>  <bao_format>  (81) 
BAO_0000019

>  <bao_label>  (81) 
assay format

>  <canonical_smiles>  (81) 
Cc1n[nH]c2ccc(cc12)c3cncc(OCC(N)Cc4cccc(OC(F)(F)F)c4)c3

>  <data_validity_comment>  (81) 
nan

>  <data_validity_description>  (81) 
nan

>  <document_chembl_id>  (81) 
CHEMBL1201862

>  <document_journal>  (81) 
nan

>  <document_year>  (81) 
nan

>  <ligand_efficiency>  (81) 
nan

>  <molecule_pref_name>  (81) 
nan

>  <parent_molecule_chembl_id>  (81) 
CHEMBL1965836

>  <pchembl_value>  (81) 
6.3

>  <potential_duplicate>  (81) 
False

>  <qudt_units>  (81) 
http://www.openphacts.org/units/Nanomolar

>  <record_id>  (81) 
1584345

>  <relation>  (81) 
=

>  <src_id>  (81) 
7

>  <standard_flag>  (81) 
True

>  <standard_relation>  (81) 
=

>  <standard_text_value>  (81) 
nan

>  <standard_type>  (81) 
Ki

>  <standard_units>  (81) 
nM

>  <standard_upper_value>  (81) 
nan

>  <standard_value>  (81) 
501.19

>  <target_chembl_id>  (81) 
CHEMBL4121

>  <target_organism>  (81) 
Homo sapiens

>  <target_pref_name>  (81) 
CaM kinase II beta

>  <target_tax_id>  (81) 
9606

>  <text_value>  (81) 
nan

>  <toid>  (81) 
nan

>  <type>  (81) 
pKi

>  <units>  (81) 
nan

>  <uo_units>  (81) 
UO_0000065

>  <upper_value>  (81) 
nan

>  <value>  (81) 
6.3

>  <SMILES>  (81) 
Cc1n[nH]c2ccc(cc12)c3cncc(OCC(N)Cc4cccc(OC(F)(F)F)c4)c3

>  <NAME>  (81) 
CHEMBL1965836

>  <FILTER>  (81) 
OK

>  <MW>  (81) 
442.441

>  <LogP>  (81) 
4.78072

>  <HBD>  (81) 
2

>  <HBA>  (81) 
5

>  <TPSA>  (81) 
86.05

>  <Label>  (81) 
CAMK2B

$$$$
CHEMBL583144
     RDKit          2D

 16 18  0  0  0  0  0  0  0  0999 V2000
   -1.0567   -5.9808    0.0000 Cl  0  0  0  0  0  0  0  0  0  0  0  0
    0.1568   -5.0991    0.0000 C   0  0  0  0  0  0  0  0  0  0  0  0
    1.5271   -5.7092    0.0000 C   0  0  0  0  0  0  0  0  0  0  0  0
    2.7406   -4.8275    0.0000 C   0  0  0  0  0  0  0  0  0  0  0  0
    2.5838   -3.3357    0.0000 C   0  0  0  0  0  0  0  0  0  0  0  0
    3.7974   -2.4540    0.0000 Cl  0  0  0  0  0  0  0  0  0  0  0  0
    1.2135   -2.7256    0.0000 C   0  0  0  0  0  0  0  0  0  0  0  0
    0.7500   -1.2990    0.0000 C   0  0  0  0  0  0  0  0  0  0  0  0
    1.5000    0.0000    0.0000 N   0  0  0  0  0  0  0  0  0  0  0  0
    0.7500    1.2990    0.0000 C   0  0  0  0  0  0  0  0  0  0  0  0
   -0.7500    1.2990    0.0000 N   0  0  0  0  0  0  0  0  0  0  0  0
   -1.5000    0.0000    0.0000 C   0  0  0  0  0  0  0  0  0  0  0  0
   -3.0000    0.0000    0.0000 O   0  0  0  0  0  0  0  0  0  0  0  0
   -0.7500   -1.2990    0.0000 C   0  0  0  0  0  0  0  0  0  0  0  0
   -1.2135   -2.7256    0.0000 S   0  0  0  0  0  0  0  0  0  0  0  0
    0.0000   -3.6073    0.0000 C   0  0  0  0  0  0  0  0  0  0  0  0
  1  2  1  0
  2  3  2  0
  3  4  1  0
  4  5  2  0
  5  6  1  0
  5  7  1  0
  7  8  1  0
  8  9  1  0
  9 10  2  0
 10 11  1  0
 11 12  1  0
 12 13  2  0
 12 14  1  0
 14 15  1  0
 15 16  1  0
 16  2  1  0
 16  7  2  0
 14  8  2  0
M  END
>  <activity_comment>  (82) 
active

>  <activity_id>  (82) 
9622541

>  <activity_properties>  (82) 
[]

>  <assay_chembl_id>  (82) 
CHEMBL1963787

>  <assay_description>  (82) 
PUBCHEM_BIOASSAY: Navigating the Kinome. (Class of assay: other) Panel member name: CAMK2B

>  <assay_type>  (82) 
F

>  <bao_endpoint>  (82) 
BAO_0000192

>  <bao_format>  (82) 
BAO_0000019

>  <bao_label>  (82) 
assay format

>  <canonical_smiles>  (82) 
Clc1ccc(Cl)c2c3N=CNC(=O)c3sc12

>  <data_validity_comment>  (82) 
nan

>  <data_validity_description>  (82) 
nan

>  <document_chembl_id>  (82) 
CHEMBL1201862

>  <document_journal>  (82) 
nan

>  <document_year>  (82) 
nan

>  <ligand_efficiency>  (82) 
nan

>  <molecule_pref_name>  (82) 
nan

>  <parent_molecule_chembl_id>  (82) 
CHEMBL583144

>  <pchembl_value>  (82) 
5.1

>  <potential_duplicate>  (82) 
False

>  <qudt_units>  (82) 
http://www.openphacts.org/units/Nanomolar

>  <record_id>  (82) 
1585191

>  <relation>  (82) 
=

>  <src_id>  (82) 
7

>  <standard_flag>  (82) 
True

>  <standard_relation>  (82) 
=

>  <standard_text_value>  (82) 
nan

>  <standard_type>  (82) 
Ki

>  <standard_units>  (82) 
nM

>  <standard_upper_value>  (82) 
nan

>  <standard_value>  (82) 
7943.28

>  <target_chembl_id>  (82) 
CHEMBL4121

>  <target_organism>  (82) 
Homo sapiens

>  <target_pref_name>  (82) 
CaM kinase II beta

>  <target_tax_id>  (82) 
9606

>  <text_value>  (82) 
nan

>  <toid>  (82) 
nan

>  <type>  (82) 
pKi

>  <units>  (82) 
nan

>  <uo_units>  (82) 
UO_0000065

>  <upper_value>  (82) 
nan

>  <value>  (82) 
5.1

>  <SMILES>  (82) 
Clc1ccc(Cl)c2c3N=CNC(=O)c3sc12

>  <NAME>  (82) 
CHEMBL583144

>  <FILTER>  (82) 
OK

>  <MW>  (82) 
271.128

>  <LogP>  (82) 
3.4446

>  <HBD>  (82) 
1

>  <HBA>  (82) 
3

>  <TPSA>  (82) 
45.75

>  <Label>  (82) 
CAMK2B

$$$$
CHEMBL1974310
     RDKit          2D

 19 21  0  0  0  0  0  0  0  0999 V2000
   -5.7221   -1.8037    0.0000 N   0  0  0  0  0  0  0  0  0  0  0  0
   -4.4231   -2.5537    0.0000 C   0  0  0  0  0  0  0  0  0  0  0  0
   -4.4231   -4.0537    0.0000 O   0  0  0  0  0  0  0  0  0  0  0  0
   -3.1240   -1.8037    0.0000 C   0  0  0  0  0  0  0  0  0  0  0  0
   -1.7537   -2.4138    0.0000 C   0  0  0  0  0  0  0  0  0  0  0  0
   -0.7500   -1.2990    0.0000 C   0  0  0  0  0  0  0  0  0  0  0  0
    0.7500   -1.2990    0.0000 C   0  0  0  0  0  0  0  0  0  0  0  0
    1.5000    0.0000    0.0000 C   0  0  0  0  0  0  0  0  0  0  0  0
    0.7500    1.2990    0.0000 N   0  0  0  0  0  0  0  0  0  0  0  0
   -0.7500    1.2990    0.0000 C   0  0  0  0  0  0  0  0  0  0  0  0
   -1.5000    0.0000    0.0000 C   0  0  0  0  0  0  0  0  0  0  0  0
   -2.9672   -0.3119    0.0000 S   0  0  0  0  0  0  0  0  0  0  0  0
    1.5000   -2.5981    0.0000 C   0  0  0  0  0  0  0  0  0  0  0  0
    0.7500   -3.8971    0.0000 C   0  0  0  0  0  0  0  0  0  0  0  0
    1.5000   -5.1962    0.0000 C   0  0  0  0  0  0  0  0  0  0  0  0
    3.0000   -5.1962    0.0000 C   0  0  0  0  0  0  0  0  0  0  0  0
    3.7500   -6.4952    0.0000 F   0  0  0  0  0  0  0  0  0  0  0  0
    3.7500   -3.8971    0.0000 C   0  0  0  0  0  0  0  0  0  0  0  0
    3.0000   -2.5981    0.0000 C   0  0  0  0  0  0  0  0  0  0  0  0
  1  2  1  0
  2  3  2  0
  2  4  1  0
  4  5  2  0
  5  6  1  0
  6  7  2  0
  7  8  1  0
  8  9  2  0
  9 10  1  0
 10 11  2  0
 11 12  1  0
  7 13  1  0
 13 14  2  0
 14 15  1  0
 15 16  2  0
 16 17  1  0
 16 18  1  0
 18 19  2  0
 12  4  1  0
 11  6  1  0
 19 13  1  0
M  END
>  <activity_comment>  (83) 
active

>  <activity_id>  (83) 
9622542

>  <activity_properties>  (83) 
[]

>  <assay_chembl_id>  (83) 
CHEMBL1963787

>  <assay_description>  (83) 
PUBCHEM_BIOASSAY: Navigating the Kinome. (Class of assay: other) Panel member name: CAMK2B

>  <assay_type>  (83) 
F

>  <bao_endpoint>  (83) 
BAO_0000192

>  <bao_format>  (83) 
BAO_0000019

>  <bao_label>  (83) 
assay format

>  <canonical_smiles>  (83) 
NC(=O)c1cc2c(cncc2s1)c3ccc(F)cc3

>  <data_validity_comment>  (83) 
nan

>  <data_validity_description>  (83) 
nan

>  <document_chembl_id>  (83) 
CHEMBL1201862

>  <document_journal>  (83) 
nan

>  <document_year>  (83) 
nan

>  <ligand_efficiency>  (83) 
nan

>  <molecule_pref_name>  (83) 
nan

>  <parent_molecule_chembl_id>  (83) 
CHEMBL1974310

>  <pchembl_value>  (83) 
5.1

>  <potential_duplicate>  (83) 
False

>  <qudt_units>  (83) 
http://www.openphacts.org/units/Nanomolar

>  <record_id>  (83) 
1584869

>  <relation>  (83) 
=

>  <src_id>  (83) 
7

>  <standard_flag>  (83) 
True

>  <standard_relation>  (83) 
=

>  <standard_text_value>  (83) 
nan

>  <standard_type>  (83) 
Ki

>  <standard_units>  (83) 
nM

>  <standard_upper_value>  (83) 
nan

>  <standard_value>  (83) 
7943.28

>  <target_chembl_id>  (83) 
CHEMBL4121

>  <target_organism>  (83) 
Homo sapiens

>  <target_pref_name>  (83) 
CaM kinase II beta

>  <target_tax_id>  (83) 
9606

>  <text_value>  (83) 
nan

>  <toid>  (83) 
nan

>  <type>  (83) 
pKi

>  <units>  (83) 
nan

>  <uo_units>  (83) 
UO_0000065

>  <upper_value>  (83) 
nan

>  <value>  (83) 
5.1

>  <SMILES>  (83) 
NC(=O)c1cc2c(cncc2s1)c3ccc(F)cc3

>  <NAME>  (83) 
CHEMBL1974310

>  <FILTER>  (83) 
OK

>  <MW>  (83) 
272.304

>  <LogP>  (83) 
3.2013

>  <HBD>  (83) 
1

>  <HBA>  (83) 
3

>  <TPSA>  (83) 
55.98

>  <Label>  (83) 
CAMK2B

$$$$
CHEMBL1982957
     RDKit          2D

 24 27  0  0  0  0  0  0  0  0999 V2000
    6.0000   -5.1962    0.0000 N   0  0  0  0  0  0  0  0  0  0  0  0
    5.2500   -3.8971    0.0000 C   0  0  0  0  0  0  0  0  0  0  0  0
    6.0000   -2.5981    0.0000 O   0  0  0  0  0  0  0  0  0  0  0  0
    3.7500   -3.8971    0.0000 C   0  0  0  0  0  0  0  0  0  0  0  0
    3.0000   -5.1962    0.0000 C   0  0  0  0  0  0  0  0  0  0  0  0
    1.5000   -5.1962    0.0000 C   0  0  0  0  0  0  0  0  0  0  0  0
    0.7500   -3.8971    0.0000 C   0  0  0  0  0  0  0  0  0  0  0  0
    1.5000   -2.5981    0.0000 C   0  0  0  0  0  0  0  0  0  0  0  0
    3.0000   -2.5981    0.0000 C   0  0  0  0  0  0  0  0  0  0  0  0
    0.7500   -1.2990    0.0000 C   0  0  0  0  0  0  0  0  0  0  0  0
    1.5000    0.0000    0.0000 C   0  0  0  0  0  0  0  0  0  0  0  0
    0.7500    1.2990    0.0000 N   0  0  0  0  0  0  0  0  0  0  0  0
   -0.7500    1.2990    0.0000 C   0  0  0  0  0  0  0  0  0  0  0  0
   -1.7537    2.4138    0.0000 N   0  0  0  0  0  0  0  0  0  0  0  0
   -3.1240    1.8037    0.0000 C   0  0  0  0  0  0  0  0  0  0  0  0
   -2.9672    0.3119    0.0000 C   0  0  0  0  0  0  0  0  0  0  0  0
   -4.0819   -0.6918    0.0000 C   0  0  0  0  0  0  0  0  0  0  0  0
   -5.5085   -0.2283    0.0000 C   0  0  0  0  0  0  0  0  0  0  0  0
   -6.6232   -1.2320    0.0000 C   0  0  0  0  0  0  0  0  0  0  0  0
   -6.3114   -2.6992    0.0000 C   0  0  0  0  0  0  0  0  0  0  0  0
   -4.8848   -3.1627    0.0000 C   0  0  0  0  0  0  0  0  0  0  0  0
   -3.7701   -2.1590    0.0000 C   0  0  0  0  0  0  0  0  0  0  0  0
   -1.5000    0.0000    0.0000 C   0  0  0  0  0  0  0  0  0  0  0  0
   -0.7500   -1.2990    0.0000 C   0  0  0  0  0  0  0  0  0  0  0  0
  1  2  1  0
  2  3  2  0
  2  4  1  0
  4  5  2  0
  5  6  1  0
  6  7  2  0
  7  8  1  0
  8  9  2  0
  8 10  1  0
 10 11  2  0
 11 12  1  0
 12 13  2  0
 13 14  1  0
 14 15  1  0
 15 16  2  0
 16 17  1  0
 17 18  2  0
 18 19  1  0
 19 20  2  0
 20 21  1  0
 21 22  2  0
 16 23  1  0
 23 24  2  0
  9  4  1  0
 24 10  1  0
 23 13  1  0
 22 17  1  0
M  END
>  <activity_comment>  (84) 
active

>  <activity_id>  (84) 
9622545

>  <activity_properties>  (84) 
[]

>  <assay_chembl_id>  (84) 
CHEMBL1963787

>  <assay_description>  (84) 
PUBCHEM_BIOASSAY: Navigating the Kinome. (Class of assay: other) Panel member name: CAMK2B

>  <assay_type>  (84) 
F

>  <bao_endpoint>  (84) 
BAO_0000192

>  <bao_format>  (84) 
BAO_0000019

>  <bao_label>  (84) 
assay format

>  <canonical_smiles>  (84) 
NC(=O)c1cccc(c1)c2cnc3[nH]cc(c4ccccc4)c3c2

>  <data_validity_comment>  (84) 
nan

>  <data_validity_description>  (84) 
nan

>  <document_chembl_id>  (84) 
CHEMBL1201862

>  <document_journal>  (84) 
nan

>  <document_year>  (84) 
nan

>  <ligand_efficiency>  (84) 
nan

>  <molecule_pref_name>  (84) 
nan

>  <parent_molecule_chembl_id>  (84) 
CHEMBL1982957

>  <pchembl_value>  (84) 
6.4

>  <potential_duplicate>  (84) 
False

>  <qudt_units>  (84) 
http://www.openphacts.org/units/Nanomolar

>  <record_id>  (84) 
1584077

>  <relation>  (84) 
=

>  <src_id>  (84) 
7

>  <standard_flag>  (84) 
True

>  <standard_relation>  (84) 
=

>  <standard_text_value>  (84) 
nan

>  <standard_type>  (84) 
Ki

>  <standard_units>  (84) 
nM

>  <standard_upper_value>  (84) 
nan

>  <standard_value>  (84) 
398.11

>  <target_chembl_id>  (84) 
CHEMBL4121

>  <target_organism>  (84) 
Homo sapiens

>  <target_pref_name>  (84) 
CaM kinase II beta

>  <target_tax_id>  (84) 
9606

>  <text_value>  (84) 
nan

>  <toid>  (84) 
nan

>  <type>  (84) 
pKi

>  <units>  (84) 
nan

>  <uo_units>  (84) 
UO_0000065

>  <upper_value>  (84) 
nan

>  <value>  (84) 
6.4

>  <SMILES>  (84) 
NC(=O)c1cccc(c1)c2cnc3[nH]cc(c4ccccc4)c3c2

>  <NAME>  (84) 
CHEMBL1982957

>  <FILTER>  (84) 
OK

>  <MW>  (84) 
313.36

>  <LogP>  (84) 
3.9958

>  <HBD>  (84) 
2

>  <HBA>  (84) 
2

>  <TPSA>  (84) 
71.77

>  <Label>  (84) 
CAMK2B

$$$$
CHEMBL1725279
     RDKit          2D

 17 20  0  0  0  0  0  0  0  0999 V2000
    3.0000   -2.5981    0.0000 O   0  0  0  0  0  0  0  0  0  0  0  0
    1.5000   -2.5981    0.0000 C   0  0  0  0  0  0  0  0  0  0  0  0
    0.7500   -1.2990    0.0000 C   0  0  0  0  0  0  0  0  0  0  0  0
    1.5000    0.0000    0.0000 C   0  0  0  0  0  0  0  0  0  0  0  0
    0.7500    1.2990    0.0000 C   0  0  0  0  0  0  0  0  0  0  0  0
   -0.7500    1.2990    0.0000 C   0  0  0  0  0  0  0  0  0  0  0  0
   -1.5000    0.0000    0.0000 C   0  0  0  0  0  0  0  0  0  0  0  0
   -0.7500   -1.2990    0.0000 C   0  0  0  0  0  0  0  0  0  0  0  0
   -1.5000   -2.5981    0.0000 C   0  0  0  0  0  0  0  0  0  0  0  0
   -2.9672   -2.9099    0.0000 N   0  0  0  0  0  0  0  0  0  0  0  0
   -3.1240   -4.4017    0.0000 N   0  0  0  0  0  0  0  0  0  0  0  0
   -1.7537   -5.0118    0.0000 C   0  0  0  0  0  0  0  0  0  0  0  0
   -1.0134   -6.3242    0.0000 C   0  0  0  0  0  0  0  0  0  0  0  0
    0.4784   -6.4810    0.0000 C   0  0  0  0  0  0  0  0  0  0  0  0
    1.3601   -5.2674    0.0000 C   0  0  0  0  0  0  0  0  0  0  0  0
    0.7500   -3.8971    0.0000 C   0  0  0  0  0  0  0  0  0  0  0  0
   -0.7500   -3.8971    0.0000 C   0  0  0  0  0  0  0  0  0  0  0  0
  1  2  1  0
  2  3  2  0
  3  4  1  0
  4  5  2  0
  5  6  1  0
  6  7  2  0
  7  8  1  0
  8  9  2  0
  9 10  1  0
 10 11  2  0
 11 12  1  0
 12 13  1  0
 13 14  2  0
 14 15  1  0
 15 16  2  0
 16 17  1  0
 16  2  1  0
  8  3  1  0
 17  9  1  0
 17 12  2  0
M  END
>  <activity_comment>  (85) 
active

>  <activity_id>  (85) 
9622546

>  <activity_properties>  (85) 
[]

>  <assay_chembl_id>  (85) 
CHEMBL1963787

>  <assay_description>  (85) 
PUBCHEM_BIOASSAY: Navigating the Kinome. (Class of assay: other) Panel member name: CAMK2B

>  <assay_type>  (85) 
F

>  <bao_endpoint>  (85) 
BAO_0000192

>  <bao_format>  (85) 
BAO_0000019

>  <bao_label>  (85) 
assay format

>  <canonical_smiles>  (85) 
Oc1c2ccccc2c3N=Nc4cccc1c34

>  <data_validity_comment>  (85) 
nan

>  <data_validity_description>  (85) 
nan

>  <document_chembl_id>  (85) 
CHEMBL1201862

>  <document_journal>  (85) 
nan

>  <document_year>  (85) 
nan

>  <ligand_efficiency>  (85) 
nan

>  <molecule_pref_name>  (85) 
SP-600125

>  <parent_molecule_chembl_id>  (85) 
CHEMBL1725279

>  <pchembl_value>  (85) 
5.2

>  <potential_duplicate>  (85) 
False

>  <qudt_units>  (85) 
http://www.openphacts.org/units/Nanomolar

>  <record_id>  (85) 
1585557

>  <relation>  (85) 
=

>  <src_id>  (85) 
7

>  <standard_flag>  (85) 
True

>  <standard_relation>  (85) 
=

>  <standard_text_value>  (85) 
nan

>  <standard_type>  (85) 
Ki

>  <standard_units>  (85) 
nM

>  <standard_upper_value>  (85) 
nan

>  <standard_value>  (85) 
6309.57

>  <target_chembl_id>  (85) 
CHEMBL4121

>  <target_organism>  (85) 
Homo sapiens

>  <target_pref_name>  (85) 
CaM kinase II beta

>  <target_tax_id>  (85) 
9606

>  <text_value>  (85) 
nan

>  <toid>  (85) 
nan

>  <type>  (85) 
pKi

>  <units>  (85) 
nan

>  <uo_units>  (85) 
UO_0000065

>  <upper_value>  (85) 
nan

>  <value>  (85) 
5.2

>  <SMILES>  (85) 
Oc1c2ccccc2c3N=Nc4cccc1c34

>  <NAME>  (85) 
CHEMBL1725279

>  <FILTER>  (85) 
OK

>  <MW>  (85) 
220.231

>  <LogP>  (85) 
4.4274

>  <HBD>  (85) 
1

>  <HBA>  (85) 
3

>  <TPSA>  (85) 
44.95

>  <Label>  (85) 
CAMK2B

$$$$
CHEMBL1975138
     RDKit          2D

 28 30  0  0  0  0  0  0  0  0999 V2000
   -0.0000  -10.3923    0.0000 O   0  0  0  0  0  0  0  0  0  0  0  0
    0.7500   -9.0933    0.0000 C   0  0  0  0  0  0  0  0  0  0  0  0
    1.5000   -7.7942    0.0000 C   0  0  0  0  0  0  0  0  0  0  0  0
    3.0000   -7.7942    0.0000 O   0  0  0  0  0  0  0  0  0  0  0  0
    0.7500   -6.4952    0.0000 N   0  0  0  0  0  0  0  0  0  0  0  0
    1.5000   -5.1962    0.0000 N   0  0  0  0  0  0  0  0  0  0  0  0
    0.7500   -3.8971    0.0000 C   0  0  0  0  0  0  0  0  0  0  0  0
   -0.7500   -3.8971    0.0000 S   0  0  0  0  0  0  0  0  0  0  0  0
    1.5000   -2.5981    0.0000 N   0  0  0  0  0  0  0  0  0  0  0  0
    0.7500   -1.2990    0.0000 C   0  0  0  0  0  0  0  0  0  0  0  0
    1.5000    0.0000    0.0000 C   0  0  0  0  0  0  0  0  0  0  0  0
    0.7500    1.2990    0.0000 C   0  0  0  0  0  0  0  0  0  0  0  0
   -0.7500    1.2990    0.0000 C   0  0  0  0  0  0  0  0  0  0  0  0
   -1.5000    2.5981    0.0000 F   0  0  0  0  0  0  0  0  0  0  0  0
   -1.5000    0.0000    0.0000 C   0  0  0  0  0  0  0  0  0  0  0  0
   -0.7500   -1.2990    0.0000 C   0  0  0  0  0  0  0  0  0  0  0  0
   -0.5490   -8.3433    0.0000 C   0  0  0  0  0  0  0  0  0  0  0  0
   -0.5490   -6.8433    0.0000 C   0  0  0  0  0  0  0  0  0  0  0  0
   -1.8481   -6.0933    0.0000 C   0  0  0  0  0  0  0  0  0  0  0  0
   -3.1471   -6.8433    0.0000 C   0  0  0  0  0  0  0  0  0  0  0  0
   -3.1471   -8.3433    0.0000 C   0  0  0  0  0  0  0  0  0  0  0  0
   -1.8481   -9.0933    0.0000 C   0  0  0  0  0  0  0  0  0  0  0  0
    2.0490   -9.8433    0.0000 C   0  0  0  0  0  0  0  0  0  0  0  0
    2.0490  -11.3433    0.0000 C   0  0  0  0  0  0  0  0  0  0  0  0
    3.3481  -12.0933    0.0000 C   0  0  0  0  0  0  0  0  0  0  0  0
    4.6471  -11.3433    0.0000 C   0  0  0  0  0  0  0  0  0  0  0  0
    4.6471   -9.8433    0.0000 C   0  0  0  0  0  0  0  0  0  0  0  0
    3.3481   -9.0933    0.0000 C   0  0  0  0  0  0  0  0  0  0  0  0
  1  2  1  0
  2  3  1  0
  3  4  2  0
  3  5  1  0
  5  6  1  0
  6  7  1  0
  7  8  2  0
  7  9  1  0
  9 10  1  0
 10 11  2  0
 11 12  1  0
 12 13  2  0
 13 14  1  0
 13 15  1  0
 15 16  2  0
  2 17  1  0
 17 18  2  0
 18 19  1  0
 19 20  2  0
 20 21  1  0
 21 22  2  0
  2 23  1  0
 23 24  2  0
 24 25  1  0
 25 26  2  0
 26 27  1  0
 27 28  2  0
 16 10  1  0
 22 17  1  0
 28 23  1  0
M  END
>  <activity_comment>  (86) 
active

>  <activity_id>  (86) 
9622547

>  <activity_properties>  (86) 
[]

>  <assay_chembl_id>  (86) 
CHEMBL1963787

>  <assay_description>  (86) 
PUBCHEM_BIOASSAY: Navigating the Kinome. (Class of assay: other) Panel member name: CAMK2B

>  <assay_type>  (86) 
F

>  <bao_endpoint>  (86) 
BAO_0000192

>  <bao_format>  (86) 
BAO_0000019

>  <bao_label>  (86) 
assay format

>  <canonical_smiles>  (86) 
OC(C(=O)NNC(=S)Nc1ccc(F)cc1)(c2ccccc2)c3ccccc3

>  <data_validity_comment>  (86) 
nan

>  <data_validity_description>  (86) 
nan

>  <document_chembl_id>  (86) 
CHEMBL1201862

>  <document_journal>  (86) 
nan

>  <document_year>  (86) 
nan

>  <ligand_efficiency>  (86) 
nan

>  <molecule_pref_name>  (86) 
nan

>  <parent_molecule_chembl_id>  (86) 
CHEMBL1975138

>  <pchembl_value>  (86) 
5.1

>  <potential_duplicate>  (86) 
False

>  <qudt_units>  (86) 
http://www.openphacts.org/units/Nanomolar

>  <record_id>  (86) 
1584331

>  <relation>  (86) 
=

>  <src_id>  (86) 
7

>  <standard_flag>  (86) 
True

>  <standard_relation>  (86) 
=

>  <standard_text_value>  (86) 
nan

>  <standard_type>  (86) 
Ki

>  <standard_units>  (86) 
nM

>  <standard_upper_value>  (86) 
nan

>  <standard_value>  (86) 
7943.28

>  <target_chembl_id>  (86) 
CHEMBL4121

>  <target_organism>  (86) 
Homo sapiens

>  <target_pref_name>  (86) 
CaM kinase II beta

>  <target_tax_id>  (86) 
9606

>  <text_value>  (86) 
nan

>  <toid>  (86) 
nan

>  <type>  (86) 
pKi

>  <units>  (86) 
nan

>  <uo_units>  (86) 
UO_0000065

>  <upper_value>  (86) 
nan

>  <value>  (86) 
5.1

>  <SMILES>  (86) 
OC(C(=O)NNC(=S)Nc1ccc(F)cc1)(c2ccccc2)c3ccccc3

>  <NAME>  (86) 
CHEMBL1975138

>  <FILTER>  (86) 
OK

>  <MW>  (86) 
395.459

>  <LogP>  (86) 
3.0794

>  <HBD>  (86) 
4

>  <HBA>  (86) 
3

>  <TPSA>  (86) 
73.39

>  <Label>  (86) 
CAMK2B

$$$$
CHEMBL2003271
     RDKit          2D

 24 26  0  0  0  0  0  0  0  0999 V2000
    1.2990   -5.8573    0.0000 N   0  0  0  0  0  0  0  0  0  0  0  0
   -0.0000   -5.1073    0.0000 C   0  0  0  0  0  0  0  0  0  0  0  0
   -1.2990   -5.8573    0.0000 O   0  0  0  0  0  0  0  0  0  0  0  0
   -0.0000   -3.6073    0.0000 C   0  0  0  0  0  0  0  0  0  0  0  0
    1.2135   -2.7256    0.0000 S   0  0  0  0  0  0  0  0  0  0  0  0
    0.7500   -1.2990    0.0000 C   0  0  0  0  0  0  0  0  0  0  0  0
    1.5000    0.0000    0.0000 C   0  0  0  0  0  0  0  0  0  0  0  0
    0.7500    1.2990    0.0000 C   0  0  0  0  0  0  0  0  0  0  0  0
   -0.7500    1.2990    0.0000 C   0  0  0  0  0  0  0  0  0  0  0  0
   -1.5000    2.5981    0.0000 Cl  0  0  0  0  0  0  0  0  0  0  0  0
   -1.5000    0.0000    0.0000 C   0  0  0  0  0  0  0  0  0  0  0  0
   -2.9888    0.1828    0.0000 Cl  0  0  0  0  0  0  0  0  0  0  0  0
   -0.7500   -1.2990    0.0000 C   0  0  0  0  0  0  0  0  0  0  0  0
   -1.2135   -2.7256    0.0000 C   0  0  0  0  0  0  0  0  0  0  0  0
   -2.6401   -3.1891    0.0000 N   0  0  0  0  0  0  0  0  0  0  0  0
   -3.7548   -2.1855    0.0000 C   0  0  0  0  0  0  0  0  0  0  0  0
   -3.6241   -0.6912    0.0000 O   0  0  0  0  0  0  0  0  0  0  0  0
   -5.1814   -2.6490    0.0000 C   0  0  0  0  0  0  0  0  0  0  0  0
   -5.4933   -4.1162    0.0000 C   0  0  0  0  0  0  0  0  0  0  0  0
   -6.9199   -4.5797    0.0000 C   0  0  0  0  0  0  0  0  0  0  0  0
   -8.0346   -3.5760    0.0000 C   0  0  0  0  0  0  0  0  0  0  0  0
   -9.4612   -4.0396    0.0000 Cl  0  0  0  0  0  0  0  0  0  0  0  0
   -7.7227   -2.1088    0.0000 C   0  0  0  0  0  0  0  0  0  0  0  0
   -6.2961   -1.6453    0.0000 C   0  0  0  0  0  0  0  0  0  0  0  0
  1  2  1  0
  2  3  2  0
  2  4  1  0
  4  5  1  0
  5  6  1  0
  6  7  2  0
  7  8  1  0
  8  9  2  0
  9 10  1  0
  9 11  1  0
 11 12  1  0
 11 13  2  0
 13 14  1  0
 14 15  1  0
 15 16  1  0
 16 17  2  0
 16 18  1  0
 18 19  2  0
 19 20  1  0
 20 21  2  0
 21 22  1  0
 21 23  1  0
 23 24  2  0
 14  4  2  0
 13  6  1  0
 24 18  1  0
M  END
>  <activity_comment>  (87) 
active

>  <activity_id>  (87) 
9622552

>  <activity_properties>  (87) 
[]

>  <assay_chembl_id>  (87) 
CHEMBL1963787

>  <assay_description>  (87) 
PUBCHEM_BIOASSAY: Navigating the Kinome. (Class of assay: other) Panel member name: CAMK2B

>  <assay_type>  (87) 
F

>  <bao_endpoint>  (87) 
BAO_0000192

>  <bao_format>  (87) 
BAO_0000019

>  <bao_label>  (87) 
assay format

>  <canonical_smiles>  (87) 
NC(=O)c1sc2ccc(Cl)c(Cl)c2c1NC(=O)c3ccc(Cl)cc3

>  <data_validity_comment>  (87) 
nan

>  <data_validity_description>  (87) 
nan

>  <document_chembl_id>  (87) 
CHEMBL1201862

>  <document_journal>  (87) 
nan

>  <document_year>  (87) 
nan

>  <ligand_efficiency>  (87) 
nan

>  <molecule_pref_name>  (87) 
nan

>  <parent_molecule_chembl_id>  (87) 
CHEMBL2003271

>  <pchembl_value>  (87) 
5.7

>  <potential_duplicate>  (87) 
False

>  <qudt_units>  (87) 
http://www.openphacts.org/units/Nanomolar

>  <record_id>  (87) 
1584559

>  <relation>  (87) 
=

>  <src_id>  (87) 
7

>  <standard_flag>  (87) 
True

>  <standard_relation>  (87) 
=

>  <standard_text_value>  (87) 
nan

>  <standard_type>  (87) 
Ki

>  <standard_units>  (87) 
nM

>  <standard_upper_value>  (87) 
nan

>  <standard_value>  (87) 
1995.26

>  <target_chembl_id>  (87) 
CHEMBL4121

>  <target_organism>  (87) 
Homo sapiens

>  <target_pref_name>  (87) 
CaM kinase II beta

>  <target_tax_id>  (87) 
9606

>  <text_value>  (87) 
nan

>  <toid>  (87) 
nan

>  <type>  (87) 
pKi

>  <units>  (87) 
nan

>  <uo_units>  (87) 
UO_0000065

>  <upper_value>  (87) 
nan

>  <value>  (87) 
5.7

>  <SMILES>  (87) 
NC(=O)c1sc2ccc(Cl)c(Cl)c2c1NC(=O)c3ccc(Cl)cc3

>  <NAME>  (87) 
CHEMBL2003271

>  <FILTER>  (87) 
OK

>  <MW>  (87) 
399.686

>  <LogP>  (87) 
5.2127

>  <HBD>  (87) 
2

>  <HBA>  (87) 
3

>  <TPSA>  (87) 
72.19

>  <Label>  (87) 
CAMK2B

$$$$
CHEMBL1983111
     RDKit          2D

 34 38  0  0  0  0  0  0  0  0999 V2000
   -2.5981   -9.6073    0.0000 C   0  0  0  0  0  0  0  0  0  0  0  0
   -2.5981   -8.1073    0.0000 C   0  0  0  0  0  0  0  0  0  0  0  0
   -3.8971   -7.3573    0.0000 O   0  0  0  0  0  0  0  0  0  0  0  0
   -1.2990   -7.3573    0.0000 N   0  0  0  0  0  0  0  0  0  0  0  0
   -1.2990   -5.8573    0.0000 C   0  0  0  0  0  0  0  0  0  0  0  0
    0.0000   -5.1073    0.0000 C   0  0  0  0  0  0  0  0  0  0  0  0
    1.2990   -5.8573    0.0000 O   0  0  0  0  0  0  0  0  0  0  0  0
    0.0000   -3.6073    0.0000 N   0  0  0  0  0  0  0  0  0  0  0  0
   -1.2135   -2.7256    0.0000 C   0  0  0  0  0  0  0  0  0  0  0  0
   -0.7500   -4.1522    0.0000 C   0  0  0  0  0  0  0  0  0  0  0  0
    0.7500   -4.1522    0.0000 C   0  0  0  0  0  0  0  0  0  0  0  0
    1.2135   -2.7256    0.0000 C   0  0  0  0  0  0  0  0  0  0  0  0
    0.7500   -1.2990    0.0000 C   0  0  0  0  0  0  0  0  0  0  0  0
    1.5000    0.0000    0.0000 C   0  0  0  0  0  0  0  0  0  0  0  0
    0.7500    1.2990    0.0000 C   0  0  0  0  0  0  0  0  0  0  0  0
    1.5000    2.5981    0.0000 N   0  0  0  0  0  0  0  0  0  0  0  0
    3.0000    2.5981    0.0000 C   0  0  0  0  0  0  0  0  0  0  0  0
    3.7500    1.2990    0.0000 N   0  0  0  0  0  0  0  0  0  0  0  0
    5.2500    1.2990    0.0000 C   0  0  0  0  0  0  0  0  0  0  0  0
    6.0000    2.5981    0.0000 C   0  0  0  0  0  0  0  0  0  0  0  0
    5.2500    3.8971    0.0000 C   0  0  0  0  0  0  0  0  0  0  0  0
    6.0000    5.1962    0.0000 N   0  0  0  0  0  0  0  0  0  0  0  0
    5.2500    6.4952    0.0000 C   0  0  0  0  0  0  0  0  0  0  0  0
    5.6382    7.9441    0.0000 C   0  0  0  0  0  0  0  0  0  0  0  0
    4.1893    8.3323    0.0000 C   0  0  0  0  0  0  0  0  0  0  0  0
    3.8011    6.8834    0.0000 C   0  0  0  0  0  0  0  0  0  0  0  0
    3.7500    3.8971    0.0000 N   0  0  0  0  0  0  0  0  0  0  0  0
    7.5000    2.5981    0.0000 C   0  0  0  0  0  0  0  0  0  0  0  0
    9.0000    2.5981    0.0000 F   0  0  0  0  0  0  0  0  0  0  0  0
    7.5000    1.0981    0.0000 F   0  0  0  0  0  0  0  0  0  0  0  0
    7.5000    4.0981    0.0000 F   0  0  0  0  0  0  0  0  0  0  0  0
   -0.7500    1.2990    0.0000 C   0  0  0  0  0  0  0  0  0  0  0  0
   -1.5000    0.0000    0.0000 C   0  0  0  0  0  0  0  0  0  0  0  0
   -0.7500   -1.2990    0.0000 C   0  0  0  0  0  0  0  0  0  0  0  0
  1  2  1  0
  2  3  2  0
  2  4  1  0
  4  5  1  0
  5  6  1  0
  6  7  2  0
  6  8  1  0
  8  9  1  0
  9 10  1  0
 10 11  1  0
 11 12  1  0
 12 13  1  0
 13 14  2  0
 14 15  1  0
 15 16  1  0
 16 17  1  0
 17 18  2  0
 18 19  1  0
 19 20  2  0
 20 21  1  0
 21 22  1  0
 22 23  1  0
 23 24  1  0
 24 25  1  0
 25 26  1  0
 21 27  2  0
 20 28  1  0
 28 29  1  0
 28 30  1  0
 28 31  1  0
 15 32  2  0
 32 33  1  0
 33 34  2  0
 12  8  1  0
 34  9  1  0
 34 13  1  0
 27 17  1  0
 26 23  1  0
M  END
>  <activity_comment>  (88) 
active

>  <activity_id>  (88) 
9622555

>  <activity_properties>  (88) 
[]

>  <assay_chembl_id>  (88) 
CHEMBL1963787

>  <assay_description>  (88) 
PUBCHEM_BIOASSAY: Navigating the Kinome. (Class of assay: other) Panel member name: CAMK2B

>  <assay_type>  (88) 
F

>  <bao_endpoint>  (88) 
BAO_0000192

>  <bao_format>  (88) 
BAO_0000019

>  <bao_label>  (88) 
assay format

>  <canonical_smiles>  (88) 
CC(=O)NCC(=O)N1C2CCC1c3cc(Nc4ncc(c(NC5CCC5)n4)C(F)(F)F)ccc23

>  <data_validity_comment>  (88) 
nan

>  <data_validity_description>  (88) 
nan

>  <document_chembl_id>  (88) 
CHEMBL1201862

>  <document_journal>  (88) 
nan

>  <document_year>  (88) 
nan

>  <ligand_efficiency>  (88) 
nan

>  <molecule_pref_name>  (88) 
nan

>  <parent_molecule_chembl_id>  (88) 
CHEMBL1983111

>  <pchembl_value>  (88) 
5.3

>  <potential_duplicate>  (88) 
False

>  <qudt_units>  (88) 
http://www.openphacts.org/units/Nanomolar

>  <record_id>  (88) 
1584621

>  <relation>  (88) 
=

>  <src_id>  (88) 
7

>  <standard_flag>  (88) 
True

>  <standard_relation>  (88) 
=

>  <standard_text_value>  (88) 
nan

>  <standard_type>  (88) 
Ki

>  <standard_units>  (88) 
nM

>  <standard_upper_value>  (88) 
nan

>  <standard_value>  (88) 
5011.87

>  <target_chembl_id>  (88) 
CHEMBL4121

>  <target_organism>  (88) 
Homo sapiens

>  <target_pref_name>  (88) 
CaM kinase II beta

>  <target_tax_id>  (88) 
9606

>  <text_value>  (88) 
nan

>  <toid>  (88) 
nan

>  <type>  (88) 
pKi

>  <units>  (88) 
nan

>  <uo_units>  (88) 
UO_0000065

>  <upper_value>  (88) 
nan

>  <value>  (88) 
5.3

>  <SMILES>  (88) 
CC(=O)NCC(=O)N1C2CCC1c3cc(Nc4ncc(c(NC5CCC5)n4)C(F)(F)F)ccc23

>  <NAME>  (88) 
CHEMBL1983111

>  <FILTER>  (88) 
OK

>  <MW>  (88) 
474.487

>  <LogP>  (88) 
4.0577

>  <HBD>  (88) 
3

>  <HBA>  (88) 
6

>  <TPSA>  (88) 
99.25

>  <Label>  (88) 
CAMK2B

$$$$
CHEMBL1973860
     RDKit          2D

 19 21  0  0  0  0  0  0  0  0999 V2000
    6.0000   -2.5981    0.0000 O   0  0  0  0  0  0  0  0  0  0  0  0
    5.2500   -1.2990    0.0000 C   0  0  0  0  0  0  0  0  0  0  0  0
    3.7500   -1.2990    0.0000 C   0  0  0  0  0  0  0  0  0  0  0  0
    3.0000    0.0000    0.0000 N   0  0  0  0  0  0  0  0  0  0  0  0
    1.5000    0.0000    0.0000 C   0  0  0  0  0  0  0  0  0  0  0  0
    0.7500   -1.2990    0.0000 C   0  0  0  0  0  0  0  0  0  0  0  0
   -0.7500   -1.2990    0.0000 C   0  0  0  0  0  0  0  0  0  0  0  0
   -1.5000   -2.5981    0.0000 C   0  0  0  0  0  0  0  0  0  0  0  0
   -3.0000   -2.5981    0.0000 C   0  0  0  0  0  0  0  0  0  0  0  0
   -3.7500   -1.2990    0.0000 C   0  0  0  0  0  0  0  0  0  0  0  0
   -3.0000    0.0000    0.0000 C   0  0  0  0  0  0  0  0  0  0  0  0
   -1.5000    0.0000    0.0000 C   0  0  0  0  0  0  0  0  0  0  0  0
   -0.7500    1.2990    0.0000 C   0  0  0  0  0  0  0  0  0  0  0  0
    0.7500    1.2990    0.0000 N   0  0  0  0  0  0  0  0  0  0  0  0
   -3.7500   -3.8971    0.0000 C   0  0  0  0  0  0  0  0  0  0  0  0
   -3.1399   -5.2674    0.0000 C   0  0  0  0  0  0  0  0  0  0  0  0
   -4.2546   -6.2711    0.0000 C   0  0  0  0  0  0  0  0  0  0  0  0
   -5.5537   -5.5211    0.0000 S   0  0  0  0  0  0  0  0  0  0  0  0
   -5.2418   -4.0539    0.0000 C   0  0  0  0  0  0  0  0  0  0  0  0
  1  2  1  0
  2  3  1  0
  3  4  1  0
  4  5  1  0
  5  6  2  0
  6  7  1  0
  7  8  2  0
  8  9  1  0
  9 10  2  0
 10 11  1  0
 11 12  2  0
 12 13  1  0
 13 14  2  0
  9 15  1  0
 15 16  1  0
 16 17  2  0
 17 18  1  0
 18 19  1  0
 14  5  1  0
 12  7  1  0
 19 15  2  0
M  END
>  <activity_comment>  (89) 
active

>  <activity_id>  (89) 
9622556

>  <activity_properties>  (89) 
[]

>  <assay_chembl_id>  (89) 
CHEMBL1963787

>  <assay_description>  (89) 
PUBCHEM_BIOASSAY: Navigating the Kinome. (Class of assay: other) Panel member name: CAMK2B

>  <assay_type>  (89) 
F

>  <bao_endpoint>  (89) 
BAO_0000192

>  <bao_format>  (89) 
BAO_0000019

>  <bao_label>  (89) 
assay format

>  <canonical_smiles>  (89) 
OCCNc1cc2cc(ccc2cn1)c3ccsc3

>  <data_validity_comment>  (89) 
nan

>  <data_validity_description>  (89) 
nan

>  <document_chembl_id>  (89) 
CHEMBL1201862

>  <document_journal>  (89) 
nan

>  <document_year>  (89) 
nan

>  <ligand_efficiency>  (89) 
nan

>  <molecule_pref_name>  (89) 
nan

>  <parent_molecule_chembl_id>  (89) 
CHEMBL1973860

>  <pchembl_value>  (89) 
6.0

>  <potential_duplicate>  (89) 
False

>  <qudt_units>  (89) 
http://www.openphacts.org/units/Nanomolar

>  <record_id>  (89) 
1585331

>  <relation>  (89) 
=

>  <src_id>  (89) 
7

>  <standard_flag>  (89) 
True

>  <standard_relation>  (89) 
=

>  <standard_text_value>  (89) 
nan

>  <standard_type>  (89) 
Ki

>  <standard_units>  (89) 
nM

>  <standard_upper_value>  (89) 
nan

>  <standard_value>  (89) 
1000.0

>  <target_chembl_id>  (89) 
CHEMBL4121

>  <target_organism>  (89) 
Homo sapiens

>  <target_pref_name>  (89) 
CaM kinase II beta

>  <target_tax_id>  (89) 
9606

>  <text_value>  (89) 
nan

>  <toid>  (89) 
nan

>  <type>  (89) 
pKi

>  <units>  (89) 
nan

>  <uo_units>  (89) 
UO_0000065

>  <upper_value>  (89) 
nan

>  <value>  (89) 
6.0

>  <SMILES>  (89) 
OCCNc1cc2cc(ccc2cn1)c3ccsc3

>  <NAME>  (89) 
CHEMBL1973860

>  <FILTER>  (89) 
OK

>  <MW>  (89) 
270.357

>  <LogP>  (89) 
3.3675

>  <HBD>  (89) 
2

>  <HBA>  (89) 
4

>  <TPSA>  (89) 
45.15

>  <Label>  (89) 
CAMK2B

$$$$
CHEMBL2004544
     RDKit          2D

 26 29  0  0  0  0  0  0  0  0999 V2000
    3.0000    0.0000    0.0000 O   0  0  0  0  0  0  0  0  0  0  0  0
    1.5000    0.0000    0.0000 C   0  0  0  0  0  0  0  0  0  0  0  0
    0.7500   -1.2990    0.0000 C   0  0  0  0  0  0  0  0  0  0  0  0
   -0.7500   -1.2990    0.0000 C   0  0  0  0  0  0  0  0  0  0  0  0
   -1.5000    0.0000    0.0000 C   0  0  0  0  0  0  0  0  0  0  0  0
   -0.7500    1.2990    0.0000 C   0  0  0  0  0  0  0  0  0  0  0  0
   -1.5000    2.5981    0.0000 C   0  0  0  0  0  0  0  0  0  0  0  0
   -0.7500    3.8971    0.0000 C   0  0  0  0  0  0  0  0  0  0  0  0
    0.7500    3.8971    0.0000 C   0  0  0  0  0  0  0  0  0  0  0  0
    1.5000    2.5981    0.0000 C   0  0  0  0  0  0  0  0  0  0  0  0
    3.0000    2.5981    0.0000 N   0  0  0  0  0  0  0  0  0  0  0  0
    3.7500    3.8971    0.0000 C   0  0  0  0  0  0  0  0  0  0  0  0
    5.2500    3.8971    0.0000 C   0  0  0  0  0  0  0  0  0  0  0  0
    6.0000    2.5981    0.0000 C   0  0  0  0  0  0  0  0  0  0  0  0
    7.5000    2.5981    0.0000 C   0  0  0  0  0  0  0  0  0  0  0  0
    8.2500    3.8971    0.0000 C   0  0  0  0  0  0  0  0  0  0  0  0
    9.7172    4.2090    0.0000 O   0  0  0  0  0  0  0  0  0  0  0  0
    9.8740    5.7008    0.0000 C   0  0  0  0  0  0  0  0  0  0  0  0
    8.5037    6.3109    0.0000 O   0  0  0  0  0  0  0  0  0  0  0  0
    7.5000    5.1962    0.0000 C   0  0  0  0  0  0  0  0  0  0  0  0
    6.0000    5.1962    0.0000 C   0  0  0  0  0  0  0  0  0  0  0  0
    0.7500    1.2990    0.0000 C   0  0  0  0  0  0  0  0  0  0  0  0
   -3.0000    2.5981    0.0000 S   0  0  0  0  0  0  0  0  0  0  0  0
   -3.0000    4.0981    0.0000 O   0  0  0  0  0  0  0  0  0  0  0  0
   -3.0000    1.0981    0.0000 O   0  0  0  0  0  0  0  0  0  0  0  0
   -4.5000    2.5981    0.0000 O   0  0  0  0  0  0  0  0  0  0  0  0
  1  2  1  0
  2  3  2  0
  3  4  1  0
  4  5  2  0
  5  6  1  0
  6  7  2  0
  7  8  1  0
  8  9  2  0
  9 10  1  0
 10 11  1  0
 11 12  1  0
 12 13  1  0
 13 14  2  0
 14 15  1  0
 15 16  2  0
 16 17  1  0
 17 18  1  0
 18 19  1  0
 19 20  1  0
 20 21  2  0
 10 22  2  0
  7 23  1  0
 23 24  2  0
 23 25  2  0
 23 26  1  0
 22  2  1  0
 22  6  1  0
 21 13  1  0
 20 16  1  0
M  END
>  <activity_comment>  (90) 
active

>  <activity_id>  (90) 
9622560

>  <activity_properties>  (90) 
[]

>  <assay_chembl_id>  (90) 
CHEMBL1963787

>  <assay_description>  (90) 
PUBCHEM_BIOASSAY: Navigating the Kinome. (Class of assay: other) Panel member name: CAMK2B

>  <assay_type>  (90) 
F

>  <bao_endpoint>  (90) 
BAO_0000192

>  <bao_format>  (90) 
BAO_0000019

>  <bao_label>  (90) 
assay format

>  <canonical_smiles>  (90) 
Oc1cccc2c(ccc(NCc3ccc4OCOc4c3)c12)S(=O)(=O)O

>  <data_validity_comment>  (90) 
nan

>  <data_validity_description>  (90) 
nan

>  <document_chembl_id>  (90) 
CHEMBL1201862

>  <document_journal>  (90) 
nan

>  <document_year>  (90) 
nan

>  <ligand_efficiency>  (90) 
nan

>  <molecule_pref_name>  (90) 
nan

>  <parent_molecule_chembl_id>  (90) 
CHEMBL2004544

>  <pchembl_value>  (90) 
5.5

>  <potential_duplicate>  (90) 
False

>  <qudt_units>  (90) 
http://www.openphacts.org/units/Nanomolar

>  <record_id>  (90) 
1585146

>  <relation>  (90) 
=

>  <src_id>  (90) 
7

>  <standard_flag>  (90) 
True

>  <standard_relation>  (90) 
=

>  <standard_text_value>  (90) 
nan

>  <standard_type>  (90) 
Ki

>  <standard_units>  (90) 
nM

>  <standard_upper_value>  (90) 
nan

>  <standard_value>  (90) 
3162.28

>  <target_chembl_id>  (90) 
CHEMBL4121

>  <target_organism>  (90) 
Homo sapiens

>  <target_pref_name>  (90) 
CaM kinase II beta

>  <target_tax_id>  (90) 
9606

>  <text_value>  (90) 
nan

>  <toid>  (90) 
nan

>  <type>  (90) 
pKi

>  <units>  (90) 
nan

>  <uo_units>  (90) 
UO_0000065

>  <upper_value>  (90) 
nan

>  <value>  (90) 
5.5

>  <SMILES>  (90) 
Oc1cccc2c(ccc(NCc3ccc4OCOc4c3)c12)S(=O)(=O)O

>  <NAME>  (90) 
CHEMBL2004544

>  <FILTER>  (90) 
OK

>  <MW>  (90) 
373.386

>  <LogP>  (90) 
3.1329

>  <HBD>  (90) 
3

>  <HBA>  (90) 
6

>  <TPSA>  (90) 
105.09

>  <Label>  (90) 
CAMK2B

$$$$
CHEMBL1982610
     RDKit          2D

 18 20  0  0  0  0  0  0  0  0999 V2000
   -0.6860    6.2961    0.0000 Cl  0  0  0  0  0  0  0  0  0  0  0  0
    0.3177    5.1814    0.0000 C   0  0  0  0  0  0  0  0  0  0  0  0
    1.7849    5.4933    0.0000 C   0  0  0  0  0  0  0  0  0  0  0  0
    2.7886    4.3786    0.0000 C   0  0  0  0  0  0  0  0  0  0  0  0
    2.3250    2.9520    0.0000 C   0  0  0  0  0  0  0  0  0  0  0  0
    0.8578    2.6401    0.0000 C   0  0  0  0  0  0  0  0  0  0  0  0
   -0.1459    3.7548    0.0000 C   0  0  0  0  0  0  0  0  0  0  0  0
    0.3943    1.2135    0.0000 C   0  0  0  0  0  0  0  0  0  0  0  0
    1.2760    0.0000    0.0000 C   0  0  0  0  0  0  0  0  0  0  0  0
    0.3943   -1.2135    0.0000 N   0  0  0  0  0  0  0  0  0  0  0  0
    0.7062   -2.6807    0.0000 C   0  0  0  0  0  0  0  0  0  0  0  0
    2.1328   -3.1443    0.0000 O   0  0  0  0  0  0  0  0  0  0  0  0
   -0.4086   -3.6844    0.0000 N   0  0  0  0  0  0  0  0  0  0  0  0
   -1.8351   -3.2209    0.0000 C   0  0  0  0  0  0  0  0  0  0  0  0
   -2.1470   -1.7537    0.0000 C   0  0  0  0  0  0  0  0  0  0  0  0
   -3.5736   -1.2902    0.0000 I   0  0  0  0  0  0  0  0  0  0  0  0
   -1.0323   -0.7500    0.0000 C   0  0  0  0  0  0  0  0  0  0  0  0
   -1.0323    0.7500    0.0000 N   0  0  0  0  0  0  0  0  0  0  0  0
  1  2  1  0
  2  3  2  0
  3  4  1  0
  4  5  2  0
  5  6  1  0
  6  7  2  0
  6  8  1  0
  8  9  2  0
  9 10  1  0
 10 11  1  0
 11 12  2  0
 11 13  1  0
 13 14  1  0
 14 15  2  0
 15 16  1  0
 15 17  1  0
 17 18  2  0
  7  2  1  0
 18  8  1  0
 17 10  1  0
M  END
>  <activity_comment>  (91) 
active

>  <activity_id>  (91) 
9622561

>  <activity_properties>  (91) 
[]

>  <assay_chembl_id>  (91) 
CHEMBL1963787

>  <assay_description>  (91) 
PUBCHEM_BIOASSAY: Navigating the Kinome. (Class of assay: other) Panel member name: CAMK2B

>  <assay_type>  (91) 
F

>  <bao_endpoint>  (91) 
BAO_0000192

>  <bao_format>  (91) 
BAO_0000019

>  <bao_label>  (91) 
assay format

>  <canonical_smiles>  (91) 
Clc1cccc(c1)c2cn3C(=O)NC=C(I)c3n2

>  <data_validity_comment>  (91) 
nan

>  <data_validity_description>  (91) 
nan

>  <document_chembl_id>  (91) 
CHEMBL1201862

>  <document_journal>  (91) 
nan

>  <document_year>  (91) 
nan

>  <ligand_efficiency>  (91) 
nan

>  <molecule_pref_name>  (91) 
nan

>  <parent_molecule_chembl_id>  (91) 
CHEMBL1982610

>  <pchembl_value>  (91) 
5.1

>  <potential_duplicate>  (91) 
False

>  <qudt_units>  (91) 
http://www.openphacts.org/units/Nanomolar

>  <record_id>  (91) 
1584935

>  <relation>  (91) 
=

>  <src_id>  (91) 
7

>  <standard_flag>  (91) 
True

>  <standard_relation>  (91) 
=

>  <standard_text_value>  (91) 
nan

>  <standard_type>  (91) 
Ki

>  <standard_units>  (91) 
nM

>  <standard_upper_value>  (91) 
nan

>  <standard_value>  (91) 
7943.28

>  <target_chembl_id>  (91) 
CHEMBL4121

>  <target_organism>  (91) 
Homo sapiens

>  <target_pref_name>  (91) 
CaM kinase II beta

>  <target_tax_id>  (91) 
9606

>  <text_value>  (91) 
nan

>  <toid>  (91) 
nan

>  <type>  (91) 
pKi

>  <units>  (91) 
nan

>  <uo_units>  (91) 
UO_0000065

>  <upper_value>  (91) 
nan

>  <value>  (91) 
5.1

>  <SMILES>  (91) 
Clc1cccc(c1)c2cn3C(=O)NC=C(I)c3n2

>  <NAME>  (91) 
CHEMBL1982610

>  <FILTER>  (91) 
OK

>  <MW>  (91) 
371.565

>  <LogP>  (91) 
2.9476

>  <HBD>  (91) 
1

>  <HBA>  (91) 
3

>  <TPSA>  (91) 
50.16

>  <Label>  (91) 
CAMK2B

$$$$
CHEMBL1998165
     RDKit          2D

 25 26  0  0  0  0  0  0  0  0999 V2000
    9.7500   -3.8971    0.0000 C   0  0  0  0  0  0  0  0  0  0  0  0
    8.2500   -3.8971    0.0000 N   0  0  0  0  0  0  0  0  0  0  0  0
    7.5000   -2.5981    0.0000 C   0  0  0  0  0  0  0  0  0  0  0  0
    6.0000   -2.5981    0.0000 C   0  0  0  0  0  0  0  0  0  0  0  0
    5.2500   -1.2990    0.0000 O   0  0  0  0  0  0  0  0  0  0  0  0
    3.7500   -1.2990    0.0000 N   0  0  0  0  0  0  0  0  0  0  0  0
    3.0000    0.0000    0.0000 C   0  0  0  0  0  0  0  0  0  0  0  0
    3.7500    1.2990    0.0000 O   0  0  0  0  0  0  0  0  0  0  0  0
    1.5000    0.0000    0.0000 C   0  0  0  0  0  0  0  0  0  0  0  0
    0.7500   -1.2990    0.0000 C   0  0  0  0  0  0  0  0  0  0  0  0
   -0.7500   -1.2990    0.0000 C   0  0  0  0  0  0  0  0  0  0  0  0
   -1.5000    0.0000    0.0000 C   0  0  0  0  0  0  0  0  0  0  0  0
   -3.0000    0.0000    0.0000 F   0  0  0  0  0  0  0  0  0  0  0  0
   -0.7500    1.2990    0.0000 C   0  0  0  0  0  0  0  0  0  0  0  0
   -1.5000    2.5981    0.0000 F   0  0  0  0  0  0  0  0  0  0  0  0
    0.7500    1.2990    0.0000 C   0  0  0  0  0  0  0  0  0  0  0  0
    1.5000    2.5981    0.0000 N   0  0  0  0  0  0  0  0  0  0  0  0
    0.7500    3.8971    0.0000 C   0  0  0  0  0  0  0  0  0  0  0  0
   -0.7500    3.8971    0.0000 C   0  0  0  0  0  0  0  0  0  0  0  0
   -1.5000    5.1962    0.0000 C   0  0  0  0  0  0  0  0  0  0  0  0
   -0.7500    6.4952    0.0000 C   0  0  0  0  0  0  0  0  0  0  0  0
   -1.5000    7.7942    0.0000 I   0  0  0  0  0  0  0  0  0  0  0  0
    0.7500    6.4952    0.0000 C   0  0  0  0  0  0  0  0  0  0  0  0
    1.5000    5.1962    0.0000 C   0  0  0  0  0  0  0  0  0  0  0  0
    3.0000    5.1962    0.0000 F   0  0  0  0  0  0  0  0  0  0  0  0
  1  2  1  0
  2  3  1  0
  3  4  1  0
  4  5  1  0
  5  6  1  0
  6  7  1  0
  7  8  2  0
  7  9  1  0
  9 10  2  0
 10 11  1  0
 11 12  2  0
 12 13  1  0
 12 14  1  0
 14 15  1  0
 14 16  2  0
 16 17  1  0
 17 18  1  0
 18 19  2  0
 19 20  1  0
 20 21  2  0
 21 22  1  0
 21 23  1  0
 23 24  2  0
 24 25  1  0
 16  9  1  0
 24 18  1  0
M  END
>  <activity_comment>  (92) 
active

>  <activity_id>  (92) 
9622562

>  <activity_properties>  (92) 
[]

>  <assay_chembl_id>  (92) 
CHEMBL1963787

>  <assay_description>  (92) 
PUBCHEM_BIOASSAY: Navigating the Kinome. (Class of assay: other) Panel member name: CAMK2B

>  <assay_type>  (92) 
F

>  <bao_endpoint>  (92) 
BAO_0000192

>  <bao_format>  (92) 
BAO_0000019

>  <bao_label>  (92) 
assay format

>  <canonical_smiles>  (92) 
CNCCONC(=O)c1ccc(F)c(F)c1Nc2ccc(I)cc2F

>  <data_validity_comment>  (92) 
nan

>  <data_validity_description>  (92) 
nan

>  <document_chembl_id>  (92) 
CHEMBL1201862

>  <document_journal>  (92) 
nan

>  <document_year>  (92) 
nan

>  <ligand_efficiency>  (92) 
nan

>  <molecule_pref_name>  (92) 
nan

>  <parent_molecule_chembl_id>  (92) 
CHEMBL1998165

>  <pchembl_value>  (92) 
5.1

>  <potential_duplicate>  (92) 
False

>  <qudt_units>  (92) 
http://www.openphacts.org/units/Nanomolar

>  <record_id>  (92) 
1585366

>  <relation>  (92) 
=

>  <src_id>  (92) 
7

>  <standard_flag>  (92) 
True

>  <standard_relation>  (92) 
=

>  <standard_text_value>  (92) 
nan

>  <standard_type>  (92) 
Ki

>  <standard_units>  (92) 
nM

>  <standard_upper_value>  (92) 
nan

>  <standard_value>  (92) 
7943.28

>  <target_chembl_id>  (92) 
CHEMBL4121

>  <target_organism>  (92) 
Homo sapiens

>  <target_pref_name>  (92) 
CaM kinase II beta

>  <target_tax_id>  (92) 
9606

>  <text_value>  (92) 
nan

>  <toid>  (92) 
nan

>  <type>  (92) 
pKi

>  <units>  (92) 
nan

>  <uo_units>  (92) 
UO_0000065

>  <upper_value>  (92) 
nan

>  <value>  (92) 
5.1

>  <SMILES>  (92) 
CNCCONC(=O)c1ccc(F)c(F)c1Nc2ccc(I)cc2F

>  <NAME>  (92) 
CHEMBL1998165

>  <FILTER>  (92) 
OK

>  <MW>  (92) 
465.213

>  <LogP>  (92) 
3.3329

>  <HBD>  (92) 
3

>  <HBA>  (92) 
4

>  <TPSA>  (92) 
62.39

>  <Label>  (92) 
CAMK2B

$$$$
CHEMBL1991078
     RDKit          2D

 34 38  0  0  0  0  0  0  0  0999 V2000
   -9.7730   -5.5068    0.0000 C   0  0  0  0  0  0  0  0  0  0  0  0
   -8.6583   -6.5105    0.0000 O   0  0  0  0  0  0  0  0  0  0  0  0
   -7.2317   -6.0469    0.0000 C   0  0  0  0  0  0  0  0  0  0  0  0
   -6.9199   -4.5797    0.0000 C   0  0  0  0  0  0  0  0  0  0  0  0
   -5.4933   -4.1162    0.0000 C   0  0  0  0  0  0  0  0  0  0  0  0
   -4.3786   -5.1199    0.0000 C   0  0  0  0  0  0  0  0  0  0  0  0
   -4.6904   -6.5871    0.0000 C   0  0  0  0  0  0  0  0  0  0  0  0
   -6.1170   -7.0506    0.0000 C   0  0  0  0  0  0  0  0  0  0  0  0
   -6.4289   -8.5179    0.0000 O   0  0  0  0  0  0  0  0  0  0  0  0
   -5.3142   -9.5216    0.0000 C   0  0  0  0  0  0  0  0  0  0  0  0
   -2.9520   -4.6564    0.0000 C   0  0  0  0  0  0  0  0  0  0  0  0
   -1.8373   -5.6601    0.0000 O   0  0  0  0  0  0  0  0  0  0  0  0
   -2.6401   -3.1891    0.0000 N   0  0  0  0  0  0  0  0  0  0  0  0
   -1.2135   -2.7256    0.0000 C   0  0  0  0  0  0  0  0  0  0  0  0
    0.0000   -3.6073    0.0000 N   0  0  0  0  0  0  0  0  0  0  0  0
    1.2135   -2.7256    0.0000 N   0  0  0  0  0  0  0  0  0  0  0  0
    0.7500   -1.2990    0.0000 C   0  0  0  0  0  0  0  0  0  0  0  0
    1.5000    0.0000    0.0000 C   0  0  0  0  0  0  0  0  0  0  0  0
    0.7500    1.2990    0.0000 C   0  0  0  0  0  0  0  0  0  0  0  0
   -0.7500    1.2990    0.0000 C   0  0  0  0  0  0  0  0  0  0  0  0
   -1.5000    0.0000    0.0000 C   0  0  0  0  0  0  0  0  0  0  0  0
   -0.7500   -1.2990    0.0000 C   0  0  0  0  0  0  0  0  0  0  0  0
   -1.5000    2.5981    0.0000 C   0  0  0  0  0  0  0  0  0  0  0  0
   -2.9918    2.7549    0.0000 C   0  0  0  0  0  0  0  0  0  0  0  0
   -3.3037    4.2221    0.0000 N   0  0  0  0  0  0  0  0  0  0  0  0
   -4.6740    4.8322    0.0000 C   0  0  0  0  0  0  0  0  0  0  0  0
   -4.8308    6.3240    0.0000 C   0  0  0  0  0  0  0  0  0  0  0  0
   -3.6172    7.2057    0.0000 C   0  0  0  0  0  0  0  0  0  0  0  0
   -3.7740    8.6974    0.0000 C   0  0  0  0  0  0  0  0  0  0  0  0
   -5.1443    9.3075    0.0000 C   0  0  0  0  0  0  0  0  0  0  0  0
   -6.3579    8.4259    0.0000 C   0  0  0  0  0  0  0  0  0  0  0  0
   -6.2011    6.9341    0.0000 C   0  0  0  0  0  0  0  0  0  0  0  0
   -2.0046    4.9721    0.0000 N   0  0  0  0  0  0  0  0  0  0  0  0
   -0.8899    3.9684    0.0000 N   0  0  0  0  0  0  0  0  0  0  0  0
  1  2  1  0
  2  3  1  0
  3  4  2  0
  4  5  1  0
  5  6  2  0
  6  7  1  0
  7  8  2  0
  8  9  1  0
  9 10  1  0
  6 11  1  0
 11 12  2  0
 11 13  1  0
 13 14  1  0
 14 15  2  0
 15 16  1  0
 16 17  1  0
 17 18  2  0
 18 19  1  0
 19 20  2  0
 20 21  1  0
 21 22  2  0
 20 23  1  0
 23 24  2  0
 24 25  1  0
 25 26  1  0
 26 27  1  0
 27 28  2  0
 28 29  1  0
 29 30  2  0
 30 31  1  0
 31 32  2  0
 25 33  1  0
 33 34  2  0
  8  3  1  0
 22 14  1  0
 22 17  1  0
 34 23  1  0
 32 27  1  0
M  END
>  <activity_comment>  (93) 
active

>  <activity_id>  (93) 
9622565

>  <activity_properties>  (93) 
[]

>  <assay_chembl_id>  (93) 
CHEMBL1963787

>  <assay_description>  (93) 
PUBCHEM_BIOASSAY: Navigating the Kinome. (Class of assay: other) Panel member name: CAMK2B

>  <assay_type>  (93) 
F

>  <bao_endpoint>  (93) 
BAO_0000192

>  <bao_format>  (93) 
BAO_0000019

>  <bao_label>  (93) 
assay format

>  <canonical_smiles>  (93) 
COc1ccc(cc1OC)C(=O)Nc2n[nH]c3ccc(cc23)c4cn(Cc5ccccc5)nn4

>  <data_validity_comment>  (93) 
nan

>  <data_validity_description>  (93) 
nan

>  <document_chembl_id>  (93) 
CHEMBL1201862

>  <document_journal>  (93) 
nan

>  <document_year>  (93) 
nan

>  <ligand_efficiency>  (93) 
nan

>  <molecule_pref_name>  (93) 
nan

>  <parent_molecule_chembl_id>  (93) 
CHEMBL1991078

>  <pchembl_value>  (93) 
5.9

>  <potential_duplicate>  (93) 
False

>  <qudt_units>  (93) 
http://www.openphacts.org/units/Nanomolar

>  <record_id>  (93) 
1584387

>  <relation>  (93) 
=

>  <src_id>  (93) 
7

>  <standard_flag>  (93) 
True

>  <standard_relation>  (93) 
=

>  <standard_text_value>  (93) 
nan

>  <standard_type>  (93) 
Ki

>  <standard_units>  (93) 
nM

>  <standard_upper_value>  (93) 
nan

>  <standard_value>  (93) 
1258.93

>  <target_chembl_id>  (93) 
CHEMBL4121

>  <target_organism>  (93) 
Homo sapiens

>  <target_pref_name>  (93) 
CaM kinase II beta

>  <target_tax_id>  (93) 
9606

>  <text_value>  (93) 
nan

>  <toid>  (93) 
nan

>  <type>  (93) 
pKi

>  <units>  (93) 
nan

>  <uo_units>  (93) 
UO_0000065

>  <upper_value>  (93) 
nan

>  <value>  (93) 
5.9

>  <SMILES>  (93) 
COc1ccc(cc1OC)C(=O)Nc2n[nH]c3ccc(cc23)c4cn(Cc5ccccc5)nn4

>  <NAME>  (93) 
CHEMBL1991078

>  <FILTER>  (93) 
OK

>  <MW>  (93) 
454.49

>  <LogP>  (93) 
4.1392

>  <HBD>  (93) 
2

>  <HBA>  (93) 
7

>  <TPSA>  (93) 
106.95

>  <Label>  (93) 
CAMK2B

$$$$
CHEMBL565612
     RDKit          2D

 33 38  0  0  0  0  0  0  0  0999 V2000
   -3.7500   -9.0933    0.0000 C   0  0  0  0  0  0  0  0  0  0  0  0
   -3.0000   -7.7942    0.0000 N   0  0  0  0  0  0  0  0  0  0  0  0
   -3.7500   -6.4952    0.0000 C   0  0  0  0  0  0  0  0  0  0  0  0
   -3.0000   -5.1962    0.0000 C   0  0  0  0  0  0  0  0  0  0  0  0
   -1.5000   -5.1962    0.0000 N   0  0  0  0  0  0  0  0  0  0  0  0
   -0.7500   -6.4952    0.0000 C   0  0  0  0  0  0  0  0  0  0  0  0
   -1.5000   -7.7942    0.0000 C   0  0  0  0  0  0  0  0  0  0  0  0
   -0.7500   -3.8971    0.0000 C   0  0  0  0  0  0  0  0  0  0  0  0
    0.7500   -3.8971    0.0000 N   0  0  0  0  0  0  0  0  0  0  0  0
    1.5000   -2.5981    0.0000 C   0  0  0  0  0  0  0  0  0  0  0  0
    3.0000   -2.5981    0.0000 C   0  0  0  0  0  0  0  0  0  0  0  0
    3.8817   -1.3846    0.0000 C   0  0  0  0  0  0  0  0  0  0  0  0
    5.3083   -1.8481    0.0000 C   0  0  0  0  0  0  0  0  0  0  0  0
    6.5218   -0.9664    0.0000 O   0  0  0  0  0  0  0  0  0  0  0  0
    5.3083   -3.3481    0.0000 N   0  0  0  0  0  0  0  0  0  0  0  0
    3.8817   -3.8116    0.0000 C   0  0  0  0  0  0  0  0  0  0  0  0
    3.4182   -5.2382    0.0000 O   0  0  0  0  0  0  0  0  0  0  0  0
    3.4182    0.0420    0.0000 C   0  0  0  0  0  0  0  0  0  0  0  0
    1.9916    0.5056    0.0000 C   0  0  0  0  0  0  0  0  0  0  0  0
    1.9916    2.0056    0.0000 N   0  0  0  0  0  0  0  0  0  0  0  0
    3.4182    2.4691    0.0000 C   0  0  0  0  0  0  0  0  0  0  0  0
    4.0283    3.8394    0.0000 C   0  0  0  0  0  0  0  0  0  0  0  0
    5.5200    3.9962    0.0000 C   0  0  0  0  0  0  0  0  0  0  0  0
    6.4017    2.7827    0.0000 C   0  0  0  0  0  0  0  0  0  0  0  0
    5.7916    1.4124    0.0000 C   0  0  0  0  0  0  0  0  0  0  0  0
    4.2998    1.2556    0.0000 C   0  0  0  0  0  0  0  0  0  0  0  0
    0.7500   -1.2990    0.0000 C   0  0  0  0  0  0  0  0  0  0  0  0
    1.5000    0.0000    0.0000 C   0  0  0  0  0  0  0  0  0  0  0  0
    0.7500    1.2990    0.0000 C   0  0  0  0  0  0  0  0  0  0  0  0
   -0.7500    1.2990    0.0000 C   0  0  0  0  0  0  0  0  0  0  0  0
   -1.5000    0.0000    0.0000 C   0  0  0  0  0  0  0  0  0  0  0  0
   -0.7500   -1.2990    0.0000 C   0  0  0  0  0  0  0  0  0  0  0  0
   -1.5000   -2.5981    0.0000 N   0  0  0  0  0  0  0  0  0  0  0  0
  1  2  1  0
  2  3  1  0
  3  4  1  0
  4  5  1  0
  5  6  1  0
  6  7  1  0
  5  8  1  0
  8  9  2  0
  9 10  1  0
 10 11  1  0
 11 12  2  0
 12 13  1  0
 13 14  2  0
 13 15  1  0
 15 16  1  0
 16 17  2  0
 12 18  1  0
 18 19  2  0
 19 20  1  0
 20 21  1  0
 21 22  2  0
 22 23  1  0
 23 24  2  0
 24 25  1  0
 25 26  2  0
 10 27  2  0
 27 28  1  0
 28 29  2  0
 29 30  1  0
 30 31  2  0
 31 32  1  0
 32 33  2  0
  7  2  1  0
 33  8  1  0
 16 11  1  0
 26 18  1  0
 26 21  1  0
 32 27  1  0
M  END
>  <activity_comment>  (94) 
active

>  <activity_id>  (94) 
9622567

>  <activity_properties>  (94) 
[]

>  <assay_chembl_id>  (94) 
CHEMBL1963787

>  <assay_description>  (94) 
PUBCHEM_BIOASSAY: Navigating the Kinome. (Class of assay: other) Panel member name: CAMK2B

>  <assay_type>  (94) 
F

>  <bao_endpoint>  (94) 
BAO_0000192

>  <bao_format>  (94) 
BAO_0000019

>  <bao_label>  (94) 
assay format

>  <canonical_smiles>  (94) 
CN1CCN(CC1)c2nc(C3=C(C(=O)NC3=O)c4c[nH]c5ccccc45)c6ccccc6n2

>  <data_validity_comment>  (94) 
nan

>  <data_validity_description>  (94) 
nan

>  <document_chembl_id>  (94) 
CHEMBL1201862

>  <document_journal>  (94) 
nan

>  <document_year>  (94) 
nan

>  <ligand_efficiency>  (94) 
nan

>  <molecule_pref_name>  (94) 
SOTRASTAURIN

>  <parent_molecule_chembl_id>  (94) 
CHEMBL565612

>  <pchembl_value>  (94) 
5.6

>  <potential_duplicate>  (94) 
False

>  <qudt_units>  (94) 
http://www.openphacts.org/units/Nanomolar

>  <record_id>  (94) 
1584938

>  <relation>  (94) 
=

>  <src_id>  (94) 
7

>  <standard_flag>  (94) 
True

>  <standard_relation>  (94) 
=

>  <standard_text_value>  (94) 
nan

>  <standard_type>  (94) 
Ki

>  <standard_units>  (94) 
nM

>  <standard_upper_value>  (94) 
nan

>  <standard_value>  (94) 
2511.89

>  <target_chembl_id>  (94) 
CHEMBL4121

>  <target_organism>  (94) 
Homo sapiens

>  <target_pref_name>  (94) 
CaM kinase II beta

>  <target_tax_id>  (94) 
9606

>  <text_value>  (94) 
nan

>  <toid>  (94) 
nan

>  <type>  (94) 
pKi

>  <units>  (94) 
nan

>  <uo_units>  (94) 
UO_0000065

>  <upper_value>  (94) 
nan

>  <value>  (94) 
5.6

>  <SMILES>  (94) 
CN1CCN(CC1)c2nc(C3=C(C(=O)NC3=O)c4c[nH]c5ccccc45)c6ccccc6n2

>  <NAME>  (94) 
CHEMBL565612

>  <FILTER>  (94) 
OK

>  <MW>  (94) 
438.491

>  <LogP>  (94) 
2.4301

>  <HBD>  (94) 
2

>  <HBA>  (94) 
6

>  <TPSA>  (94) 
94.22

>  <Label>  (94) 
CAMK2B

$$$$
CHEMBL1969502
     RDKit          2D

 26 30  0  0  0  0  0  0  0  0999 V2000
   -6.2284    0.7500    0.0000 O   0  0  0  0  0  0  0  0  0  0  0  0
   -6.2284   -0.7500    0.0000 C   0  0  0  0  0  0  0  0  0  0  0  0
   -4.9294   -1.5000    0.0000 N   0  0  0  0  0  0  0  0  0  0  0  0
   -3.6304   -0.7500    0.0000 C   0  0  0  0  0  0  0  0  0  0  0  0
   -3.6304    0.7500    0.0000 C   0  0  0  0  0  0  0  0  0  0  0  0
   -2.3313    1.5000    0.0000 C   0  0  0  0  0  0  0  0  0  0  0  0
   -2.5104    2.9893    0.0000 C   0  0  0  0  0  0  0  0  0  0  0  0
   -3.9299    3.4741    0.0000 O   0  0  0  0  0  0  0  0  0  0  0  0
   -1.4577    4.0578    0.0000 N   0  0  0  0  0  0  0  0  0  0  0  0
    0.0341    3.9010    0.0000 N   0  0  0  0  0  0  0  0  0  0  0  0
    0.8416    2.6370    0.0000 C   0  0  0  0  0  0  0  0  0  0  0  0
    0.3943    1.2135    0.0000 C   0  0  0  0  0  0  0  0  0  0  0  0
    1.2760    0.0000    0.0000 C   0  0  0  0  0  0  0  0  0  0  0  0
    0.3943   -1.2135    0.0000 N   0  0  0  0  0  0  0  0  0  0  0  0
   -1.0323   -0.7500    0.0000 C   0  0  0  0  0  0  0  0  0  0  0  0
   -2.3313   -1.5000    0.0000 C   0  0  0  0  0  0  0  0  0  0  0  0
   -1.0323    0.7500    0.0000 C   0  0  0  0  0  0  0  0  0  0  0  0
   -7.5275   -1.5000    0.0000 C   0  0  0  0  0  0  0  0  0  0  0  0
   -8.2775   -2.7990    0.0000 C   0  0  0  0  0  0  0  0  0  0  0  0
   -9.0275   -1.5000    0.0000 C   0  0  0  0  0  0  0  0  0  0  0  0
  -10.3265   -0.7500    0.0000 C   0  0  0  0  0  0  0  0  0  0  0  0
  -10.3265    0.7500    0.0000 C   0  0  0  0  0  0  0  0  0  0  0  0
  -11.6256    1.5000    0.0000 C   0  0  0  0  0  0  0  0  0  0  0  0
  -12.9246    0.7500    0.0000 C   0  0  0  0  0  0  0  0  0  0  0  0
  -12.9246   -0.7500    0.0000 C   0  0  0  0  0  0  0  0  0  0  0  0
  -11.6256   -1.5000    0.0000 C   0  0  0  0  0  0  0  0  0  0  0  0
  1  2  2  0
  2  3  1  0
  3  4  1  0
  4  5  2  0
  5  6  1  0
  6  7  1  0
  7  8  2  0
  7  9  1  0
  9 10  1  0
 10 11  2  0
 11 12  1  0
 12 13  2  0
 13 14  1  0
 14 15  1  0
 15 16  2  0
 15 17  1  0
  2 18  1  0
 18 19  1  0
 19 20  1  0
 20 21  1  0
 21 22  2  0
 22 23  1  0
 23 24  2  0
 24 25  1  0
 25 26  2  0
 16  4  1  0
 17  6  2  0
 17 12  1  0
 20 18  1  0
 26 21  1  0
M  END
>  <activity_comment>  (95) 
active

>  <activity_id>  (95) 
9622571

>  <activity_properties>  (95) 
[]

>  <assay_chembl_id>  (95) 
CHEMBL1963787

>  <assay_description>  (95) 
PUBCHEM_BIOASSAY: Navigating the Kinome. (Class of assay: other) Panel member name: CAMK2B

>  <assay_type>  (95) 
F

>  <bao_endpoint>  (95) 
BAO_0000192

>  <bao_format>  (95) 
BAO_0000019

>  <bao_label>  (95) 
assay format

>  <canonical_smiles>  (95) 
O=C(Nc1cc2C(=O)NN=Cc3c[nH]c(c1)c23)C4CC4c5ccccc5

>  <data_validity_comment>  (95) 
nan

>  <data_validity_description>  (95) 
nan

>  <document_chembl_id>  (95) 
CHEMBL1201862

>  <document_journal>  (95) 
nan

>  <document_year>  (95) 
nan

>  <ligand_efficiency>  (95) 
nan

>  <molecule_pref_name>  (95) 
nan

>  <parent_molecule_chembl_id>  (95) 
CHEMBL1969502

>  <pchembl_value>  (95) 
5.1

>  <potential_duplicate>  (95) 
False

>  <qudt_units>  (95) 
http://www.openphacts.org/units/Nanomolar

>  <record_id>  (95) 
1584937

>  <relation>  (95) 
=

>  <src_id>  (95) 
7

>  <standard_flag>  (95) 
True

>  <standard_relation>  (95) 
=

>  <standard_text_value>  (95) 
nan

>  <standard_type>  (95) 
Ki

>  <standard_units>  (95) 
nM

>  <standard_upper_value>  (95) 
nan

>  <standard_value>  (95) 
7943.28

>  <target_chembl_id>  (95) 
CHEMBL4121

>  <target_organism>  (95) 
Homo sapiens

>  <target_pref_name>  (95) 
CaM kinase II beta

>  <target_tax_id>  (95) 
9606

>  <text_value>  (95) 
nan

>  <toid>  (95) 
nan

>  <type>  (95) 
pKi

>  <units>  (95) 
nan

>  <uo_units>  (95) 
UO_0000065

>  <upper_value>  (95) 
nan

>  <value>  (95) 
5.1

>  <SMILES>  (95) 
O=C(Nc1cc2C(=O)NN=Cc3c[nH]c(c1)c23)C4CC4c5ccccc5

>  <NAME>  (95) 
CHEMBL1969502

>  <FILTER>  (95) 
OK

>  <MW>  (95) 
344.374

>  <LogP>  (95) 
3.1466

>  <HBD>  (95) 
3

>  <HBA>  (95) 
3

>  <TPSA>  (95) 
90.64

>  <Label>  (95) 
CAMK2B

$$$$
CHEMBL1997764
     RDKit          2D

 26 29  0  0  0  0  0  0  0  0999 V2000
    3.0000  -10.3923    0.0000 C   0  0  0  0  0  0  0  0  0  0  0  0
    3.7500   -9.0933    0.0000 O   0  0  0  0  0  0  0  0  0  0  0  0
    3.0000   -7.7942    0.0000 C   0  0  0  0  0  0  0  0  0  0  0  0
    1.5000   -7.7942    0.0000 C   0  0  0  0  0  0  0  0  0  0  0  0
    0.7500   -6.4952    0.0000 C   0  0  0  0  0  0  0  0  0  0  0  0
    1.5000   -5.1962    0.0000 C   0  0  0  0  0  0  0  0  0  0  0  0
    3.0000   -5.1962    0.0000 C   0  0  0  0  0  0  0  0  0  0  0  0
    3.7500   -6.4952    0.0000 C   0  0  0  0  0  0  0  0  0  0  0  0
    0.7500   -3.8971    0.0000 C   0  0  0  0  0  0  0  0  0  0  0  0
   -0.7500   -3.8971    0.0000 O   0  0  0  0  0  0  0  0  0  0  0  0
    1.5000   -2.5981    0.0000 N   0  0  0  0  0  0  0  0  0  0  0  0
    0.7500   -1.2990    0.0000 C   0  0  0  0  0  0  0  0  0  0  0  0
    1.5000    0.0000    0.0000 C   0  0  0  0  0  0  0  0  0  0  0  0
    0.7500    1.2990    0.0000 N   0  0  0  0  0  0  0  0  0  0  0  0
   -0.7500    1.2990    0.0000 C   0  0  0  0  0  0  0  0  0  0  0  0
   -1.7537    2.4138    0.0000 N   0  0  0  0  0  0  0  0  0  0  0  0
   -3.1240    1.8037    0.0000 C   0  0  0  0  0  0  0  0  0  0  0  0
   -2.9672    0.3119    0.0000 C   0  0  0  0  0  0  0  0  0  0  0  0
   -4.0819   -0.6918    0.0000 C   0  0  0  0  0  0  0  0  0  0  0  0
   -5.5085   -0.2283    0.0000 C   0  0  0  0  0  0  0  0  0  0  0  0
   -6.6232   -1.2320    0.0000 C   0  0  0  0  0  0  0  0  0  0  0  0
   -6.3114   -2.6992    0.0000 C   0  0  0  0  0  0  0  0  0  0  0  0
   -4.8848   -3.1627    0.0000 C   0  0  0  0  0  0  0  0  0  0  0  0
   -3.7701   -2.1590    0.0000 C   0  0  0  0  0  0  0  0  0  0  0  0
   -1.5000    0.0000    0.0000 C   0  0  0  0  0  0  0  0  0  0  0  0
   -0.7500   -1.2990    0.0000 C   0  0  0  0  0  0  0  0  0  0  0  0
  1  2  1  0
  2  3  1  0
  3  4  2  0
  4  5  1  0
  5  6  2  0
  6  7  1  0
  7  8  2  0
  6  9  1  0
  9 10  2  0
  9 11  1  0
 11 12  1  0
 12 13  2  0
 13 14  1  0
 14 15  2  0
 15 16  1  0
 16 17  1  0
 17 18  2  0
 18 19  1  0
 19 20  2  0
 20 21  1  0
 21 22  2  0
 22 23  1  0
 23 24  2  0
 18 25  1  0
 25 26  2  0
  8  3  1  0
 26 12  1  0
 25 15  1  0
 24 19  1  0
M  END
>  <activity_comment>  (96) 
active

>  <activity_id>  (96) 
9622574

>  <activity_properties>  (96) 
[]

>  <assay_chembl_id>  (96) 
CHEMBL1963787

>  <assay_description>  (96) 
PUBCHEM_BIOASSAY: Navigating the Kinome. (Class of assay: other) Panel member name: CAMK2B

>  <assay_type>  (96) 
F

>  <bao_endpoint>  (96) 
BAO_0000192

>  <bao_format>  (96) 
BAO_0000019

>  <bao_label>  (96) 
assay format

>  <canonical_smiles>  (96) 
COc1ccc(cc1)C(=O)Nc2cnc3[nH]cc(c4ccccc4)c3c2

>  <data_validity_comment>  (96) 
nan

>  <data_validity_description>  (96) 
nan

>  <document_chembl_id>  (96) 
CHEMBL1201862

>  <document_journal>  (96) 
nan

>  <document_year>  (96) 
nan

>  <ligand_efficiency>  (96) 
nan

>  <molecule_pref_name>  (96) 
nan

>  <parent_molecule_chembl_id>  (96) 
CHEMBL1997764

>  <pchembl_value>  (96) 
5.8

>  <potential_duplicate>  (96) 
False

>  <qudt_units>  (96) 
http://www.openphacts.org/units/Nanomolar

>  <record_id>  (96) 
1584093

>  <relation>  (96) 
=

>  <src_id>  (96) 
7

>  <standard_flag>  (96) 
True

>  <standard_relation>  (96) 
=

>  <standard_text_value>  (96) 
nan

>  <standard_type>  (96) 
Ki

>  <standard_units>  (96) 
nM

>  <standard_upper_value>  (96) 
nan

>  <standard_value>  (96) 
1584.89

>  <target_chembl_id>  (96) 
CHEMBL4121

>  <target_organism>  (96) 
Homo sapiens

>  <target_pref_name>  (96) 
CaM kinase II beta

>  <target_tax_id>  (96) 
9606

>  <text_value>  (96) 
nan

>  <toid>  (96) 
nan

>  <type>  (96) 
pKi

>  <units>  (96) 
nan

>  <uo_units>  (96) 
UO_0000065

>  <upper_value>  (96) 
nan

>  <value>  (96) 
5.8

>  <SMILES>  (96) 
COc1ccc(cc1)C(=O)Nc2cnc3[nH]cc(c4ccccc4)c3c2

>  <NAME>  (96) 
CHEMBL1997764

>  <FILTER>  (96) 
OK

>  <MW>  (96) 
343.386

>  <LogP>  (96) 
4.4908

>  <HBD>  (96) 
2

>  <HBA>  (96) 
3

>  <TPSA>  (96) 
67.01

>  <Label>  (96) 
CAMK2B

$$$$
CHEMBL1985092
     RDKit          2D

 27 30  0  0  0  0  0  0  0  0999 V2000
    3.0000    0.0000    0.0000 O   0  0  0  0  0  0  0  0  0  0  0  0
    1.5000    0.0000    0.0000 C   0  0  0  0  0  0  0  0  0  0  0  0
    0.7500   -1.2990    0.0000 C   0  0  0  0  0  0  0  0  0  0  0  0
   -0.7500   -1.2990    0.0000 C   0  0  0  0  0  0  0  0  0  0  0  0
   -1.5000    0.0000    0.0000 C   0  0  0  0  0  0  0  0  0  0  0  0
   -0.7500    1.2990    0.0000 C   0  0  0  0  0  0  0  0  0  0  0  0
    0.7500    1.2990    0.0000 C   0  0  0  0  0  0  0  0  0  0  0  0
   -3.0000    0.0000    0.0000 C   0  0  0  0  0  0  0  0  0  0  0  0
   -3.8817   -1.2135    0.0000 N   0  0  0  0  0  0  0  0  0  0  0  0
   -5.3083   -0.7500    0.0000 N   0  0  0  0  0  0  0  0  0  0  0  0
   -5.3083    0.7500    0.0000 C   0  0  0  0  0  0  0  0  0  0  0  0
   -6.5218    1.6317    0.0000 N   0  0  0  0  0  0  0  0  0  0  0  0
   -7.8921    1.0216    0.0000 C   0  0  0  0  0  0  0  0  0  0  0  0
   -8.0489   -0.4702    0.0000 C   0  0  0  0  0  0  0  0  0  0  0  0
   -9.4192   -1.0803    0.0000 C   0  0  0  0  0  0  0  0  0  0  0  0
  -10.6327   -0.1986    0.0000 C   0  0  0  0  0  0  0  0  0  0  0  0
  -10.4760    1.2931    0.0000 C   0  0  0  0  0  0  0  0  0  0  0  0
  -11.6895    2.1748    0.0000 Cl  0  0  0  0  0  0  0  0  0  0  0  0
   -9.1056    1.9033    0.0000 C   0  0  0  0  0  0  0  0  0  0  0  0
   -3.8817    1.2135    0.0000 C   0  0  0  0  0  0  0  0  0  0  0  0
   -3.4182    2.6401    0.0000 C   0  0  0  0  0  0  0  0  0  0  0  0
   -1.9509    2.9520    0.0000 C   0  0  0  0  0  0  0  0  0  0  0  0
   -1.4874    4.3786    0.0000 C   0  0  0  0  0  0  0  0  0  0  0  0
   -2.4911    5.4933    0.0000 C   0  0  0  0  0  0  0  0  0  0  0  0
   -2.0276    6.9199    0.0000 O   0  0  0  0  0  0  0  0  0  0  0  0
   -3.9583    5.1814    0.0000 C   0  0  0  0  0  0  0  0  0  0  0  0
   -4.4218    3.7548    0.0000 C   0  0  0  0  0  0  0  0  0  0  0  0
  1  2  1  0
  2  3  2  0
  3  4  1  0
  4  5  2  0
  5  6  1  0
  6  7  2  0
  5  8  1  0
  8  9  2  0
  9 10  1  0
 10 11  1  0
 11 12  1  0
 12 13  1  0
 13 14  2  0
 14 15  1  0
 15 16  2  0
 16 17  1  0
 17 18  1  0
 17 19  2  0
 11 20  2  0
 20 21  1  0
 21 22  2  0
 22 23  1  0
 23 24  2  0
 24 25  1  0
 24 26  1  0
 26 27  2  0
  7  2  1  0
 20  8  1  0
 19 13  1  0
 27 21  1  0
M  END
>  <activity_comment>  (97) 
active

>  <activity_id>  (97) 
9622576

>  <activity_properties>  (97) 
[]

>  <assay_chembl_id>  (97) 
CHEMBL1963787

>  <assay_description>  (97) 
PUBCHEM_BIOASSAY: Navigating the Kinome. (Class of assay: other) Panel member name: CAMK2B

>  <assay_type>  (97) 
F

>  <bao_endpoint>  (97) 
BAO_0000192

>  <bao_format>  (97) 
BAO_0000019

>  <bao_label>  (97) 
assay format

>  <canonical_smiles>  (97) 
Oc1ccc(cc1)c2n[nH]c(Nc3cccc(Cl)c3)c2c4ccc(O)cc4

>  <data_validity_comment>  (97) 
nan

>  <data_validity_description>  (97) 
nan

>  <document_chembl_id>  (97) 
CHEMBL1201862

>  <document_journal>  (97) 
nan

>  <document_year>  (97) 
nan

>  <ligand_efficiency>  (97) 
nan

>  <molecule_pref_name>  (97) 
nan

>  <parent_molecule_chembl_id>  (97) 
CHEMBL1985092

>  <pchembl_value>  (97) 
5.5

>  <potential_duplicate>  (97) 
False

>  <qudt_units>  (97) 
http://www.openphacts.org/units/Nanomolar

>  <record_id>  (97) 
1585459

>  <relation>  (97) 
=

>  <src_id>  (97) 
7

>  <standard_flag>  (97) 
True

>  <standard_relation>  (97) 
=

>  <standard_text_value>  (97) 
nan

>  <standard_type>  (97) 
Ki

>  <standard_units>  (97) 
nM

>  <standard_upper_value>  (97) 
nan

>  <standard_value>  (97) 
3162.28

>  <target_chembl_id>  (97) 
CHEMBL4121

>  <target_organism>  (97) 
Homo sapiens

>  <target_pref_name>  (97) 
CaM kinase II beta

>  <target_tax_id>  (97) 
9606

>  <text_value>  (97) 
nan

>  <toid>  (97) 
nan

>  <type>  (97) 
pKi

>  <units>  (97) 
nan

>  <uo_units>  (97) 
UO_0000065

>  <upper_value>  (97) 
nan

>  <value>  (97) 
5.5

>  <SMILES>  (97) 
Oc1ccc(cc1)c2n[nH]c(Nc3cccc(Cl)c3)c2c4ccc(O)cc4

>  <NAME>  (97) 
CHEMBL1985092

>  <FILTER>  (97) 
OK

>  <MW>  (97) 
377.831

>  <LogP>  (97) 
5.5519

>  <HBD>  (97) 
4

>  <HBA>  (97) 
4

>  <TPSA>  (97) 
81.17

>  <Label>  (97) 
CAMK2B

$$$$
CHEMBL1967544
     RDKit          2D

 36 40  0  0  0  0  0  0  0  0999 V2000
    3.7500   -1.2990    0.0000 C   0  0  0  0  0  0  0  0  0  0  0  0
    3.0000    0.0000    0.0000 N   0  0  0  0  0  0  0  0  0  0  0  0
    3.7500    1.2990    0.0000 C   0  0  0  0  0  0  0  0  0  0  0  0
    1.5000    0.0000    0.0000 C   0  0  0  0  0  0  0  0  0  0  0  0
    0.7500   -1.2990    0.0000 C   0  0  0  0  0  0  0  0  0  0  0  0
   -0.7500   -1.2990    0.0000 C   0  0  0  0  0  0  0  0  0  0  0  0
   -1.5000    0.0000    0.0000 C   0  0  0  0  0  0  0  0  0  0  0  0
   -0.7500    1.2990    0.0000 C   0  0  0  0  0  0  0  0  0  0  0  0
   -1.5000    2.5981    0.0000 C   0  0  0  0  0  0  0  0  0  0  0  0
   -0.7500    3.8971    0.0000 C   0  0  0  0  0  0  0  0  0  0  0  0
    0.7500    3.8971    0.0000 C   0  0  0  0  0  0  0  0  0  0  0  0
    1.5000    2.5981    0.0000 C   0  0  0  0  0  0  0  0  0  0  0  0
    0.7500    1.2990    0.0000 C   0  0  0  0  0  0  0  0  0  0  0  0
   -3.0000    2.5981    0.0000 S   0  0  0  0  0  0  0  0  0  0  0  0
   -3.0000    4.0981    0.0000 O   0  0  0  0  0  0  0  0  0  0  0  0
   -3.0000    1.0981    0.0000 O   0  0  0  0  0  0  0  0  0  0  0  0
   -4.5000    2.5981    0.0000 N   0  0  0  0  0  0  0  0  0  0  0  0
   -5.2500    1.2990    0.0000 C   0  0  0  0  0  0  0  0  0  0  0  0
   -6.7500    1.2990    0.0000 C   0  0  0  0  0  0  0  0  0  0  0  0
   -7.5000   -0.0000    0.0000 N   0  0  0  0  0  0  0  0  0  0  0  0
   -5.2500    3.8971    0.0000 C   0  0  0  0  0  0  0  0  0  0  0  0
   -4.5000    5.1962    0.0000 C   0  0  0  0  0  0  0  0  0  0  0  0
   -5.2500    6.4952    0.0000 N   0  0  0  0  0  0  0  0  0  0  0  0
   -6.7500    6.4952    0.0000 C   0  0  0  0  0  0  0  0  0  0  0  0
   -7.5000    5.1962    0.0000 C   0  0  0  0  0  0  0  0  0  0  0  0
   -6.7500    3.8971    0.0000 C   0  0  0  0  0  0  0  0  0  0  0  0
   -9.0000    5.1962    0.0000 C   0  0  0  0  0  0  0  0  0  0  0  0
   -9.7500    3.8971    0.0000 C   0  0  0  0  0  0  0  0  0  0  0  0
  -11.2500    3.8971    0.0000 C   0  0  0  0  0  0  0  0  0  0  0  0
  -12.0000    5.1962    0.0000 C   0  0  0  0  0  0  0  0  0  0  0  0
  -13.5000    5.1962    0.0000 C   0  0  0  0  0  0  0  0  0  0  0  0
  -14.2500    6.4952    0.0000 N   0  0  0  0  0  0  0  0  0  0  0  0
  -13.5000    7.7942    0.0000 C   0  0  0  0  0  0  0  0  0  0  0  0
  -12.0000    7.7942    0.0000 C   0  0  0  0  0  0  0  0  0  0  0  0
  -11.2500    6.4952    0.0000 C   0  0  0  0  0  0  0  0  0  0  0  0
   -9.7500    6.4952    0.0000 C   0  0  0  0  0  0  0  0  0  0  0  0
  1  2  1  0
  2  3  1  0
  2  4  1  0
  4  5  2  0
  5  6  1  0
  6  7  2  0
  7  8  1  0
  8  9  2  0
  9 10  1  0
 10 11  2  0
 11 12  1  0
 12 13  2  0
  9 14  1  0
 14 15  2  0
 14 16  2  0
 14 17  1  0
 17 18  1  0
 18 19  1  0
 19 20  1  0
 17 21  1  0
 21 22  2  0
 22 23  1  0
 23 24  2  0
 24 25  1  0
 25 26  2  0
 25 27  1  0
 27 28  2  0
 28 29  1  0
 29 30  2  0
 30 31  1  0
 31 32  2  0
 32 33  1  0
 33 34  2  0
 34 35  1  0
 35 36  2  0
 13  4  1  0
 13  8  1  0
 26 21  1  0
 36 27  1  0
 35 30  1  0
M  END
>  <activity_comment>  (98) 
active

>  <activity_id>  (98) 
9622581

>  <activity_properties>  (98) 
[]

>  <assay_chembl_id>  (98) 
CHEMBL1963787

>  <assay_description>  (98) 
PUBCHEM_BIOASSAY: Navigating the Kinome. (Class of assay: other) Panel member name: CAMK2B

>  <assay_type>  (98) 
F

>  <bao_endpoint>  (98) 
BAO_0000192

>  <bao_format>  (98) 
BAO_0000019

>  <bao_label>  (98) 
assay format

>  <canonical_smiles>  (98) 
CN(C)c1cccc2c(cccc12)S(=O)(=O)N(CCN)c3cncc(c3)c4ccc5cnccc5c4

>  <data_validity_comment>  (98) 
nan

>  <data_validity_description>  (98) 
nan

>  <document_chembl_id>  (98) 
CHEMBL1201862

>  <document_journal>  (98) 
nan

>  <document_year>  (98) 
nan

>  <ligand_efficiency>  (98) 
nan

>  <molecule_pref_name>  (98) 
nan

>  <parent_molecule_chembl_id>  (98) 
CHEMBL1967544

>  <pchembl_value>  (98) 
5.2

>  <potential_duplicate>  (98) 
False

>  <qudt_units>  (98) 
http://www.openphacts.org/units/Nanomolar

>  <record_id>  (98) 
1585027

>  <relation>  (98) 
=

>  <src_id>  (98) 
7

>  <standard_flag>  (98) 
True

>  <standard_relation>  (98) 
=

>  <standard_text_value>  (98) 
nan

>  <standard_type>  (98) 
Ki

>  <standard_units>  (98) 
nM

>  <standard_upper_value>  (98) 
nan

>  <standard_value>  (98) 
6309.57

>  <target_chembl_id>  (98) 
CHEMBL4121

>  <target_organism>  (98) 
Homo sapiens

>  <target_pref_name>  (98) 
CaM kinase II beta

>  <target_tax_id>  (98) 
9606

>  <text_value>  (98) 
nan

>  <toid>  (98) 
nan

>  <type>  (98) 
pKi

>  <units>  (98) 
nan

>  <uo_units>  (98) 
UO_0000065

>  <upper_value>  (98) 
nan

>  <value>  (98) 
5.2

>  <SMILES>  (98) 
CN(C)c1cccc2c(cccc12)S(=O)(=O)N(CCN)c3cncc(c3)c4ccc5cnccc5c4

>  <NAME>  (98) 
CHEMBL1967544

>  <FILTER>  (98) 
OK

>  <MW>  (98) 
497.624

>  <LogP>  (98) 
4.67

>  <HBD>  (98) 
1

>  <HBA>  (98) 
6

>  <TPSA>  (98) 
92.42

>  <Label>  (98) 
CAMK2B

$$$$
CHEMBL340384
     RDKit          2D

 28 31  0  0  0  0  0  0  0  0999 V2000
   -3.0000   -5.1962    0.0000 N   0  0  0  0  0  0  0  0  0  0  0  0
   -1.5000   -5.1962    0.0000 C   0  0  0  0  0  0  0  0  0  0  0  0
   -0.7500   -6.4952    0.0000 O   0  0  0  0  0  0  0  0  0  0  0  0
   -0.7500   -3.8971    0.0000 C   0  0  0  0  0  0  0  0  0  0  0  0
    0.7500   -3.8971    0.0000 C   0  0  0  0  0  0  0  0  0  0  0  0
    1.5000   -2.5981    0.0000 N   0  0  0  0  0  0  0  0  0  0  0  0
    3.0000   -2.5981    0.0000 C   0  0  0  0  0  0  0  0  0  0  0  0
    3.7500   -3.8971    0.0000 C   0  0  0  0  0  0  0  0  0  0  0  0
    5.2500   -3.8971    0.0000 C   0  0  0  0  0  0  0  0  0  0  0  0
    6.0000   -2.5981    0.0000 C   0  0  0  0  0  0  0  0  0  0  0  0
    7.5000   -2.5981    0.0000 O   0  0  0  0  0  0  0  0  0  0  0  0
    5.2500   -1.2990    0.0000 C   0  0  0  0  0  0  0  0  0  0  0  0
    3.7500   -1.2990    0.0000 C   0  0  0  0  0  0  0  0  0  0  0  0
    3.0000    0.0000    0.0000 Cl  0  0  0  0  0  0  0  0  0  0  0  0
    0.7500   -1.2990    0.0000 C   0  0  0  0  0  0  0  0  0  0  0  0
    1.5000    0.0000    0.0000 C   0  0  0  0  0  0  0  0  0  0  0  0
    0.7500    1.2990    0.0000 C   0  0  0  0  0  0  0  0  0  0  0  0
   -0.7500    1.2990    0.0000 C   0  0  0  0  0  0  0  0  0  0  0  0
   -1.5000    0.0000    0.0000 C   0  0  0  0  0  0  0  0  0  0  0  0
   -0.7500   -1.2990    0.0000 C   0  0  0  0  0  0  0  0  0  0  0  0
   -1.5000   -2.5981    0.0000 C   0  0  0  0  0  0  0  0  0  0  0  0
   -3.0000   -2.5981    0.0000 O   0  0  0  0  0  0  0  0  0  0  0  0
    1.5000    2.5981    0.0000 C   0  0  0  0  0  0  0  0  0  0  0  0
    3.0000    2.5981    0.0000 C   0  0  0  0  0  0  0  0  0  0  0  0
    3.7500    3.8971    0.0000 C   0  0  0  0  0  0  0  0  0  0  0  0
    3.0000    5.1962    0.0000 N   0  0  0  0  0  0  0  0  0  0  0  0
    1.5000    5.1962    0.0000 C   0  0  0  0  0  0  0  0  0  0  0  0
    0.7500    3.8971    0.0000 C   0  0  0  0  0  0  0  0  0  0  0  0
  1  2  1  0
  2  3  2  0
  2  4  1  0
  4  5  2  0
  5  6  1  0
  6  7  1  0
  7  8  2  0
  8  9  1  0
  9 10  2  0
 10 11  1  0
 10 12  1  0
 12 13  2  0
 13 14  1  0
  6 15  1  0
 15 16  2  0
 16 17  1  0
 17 18  2  0
 18 19  1  0
 19 20  2  0
 20 21  1  0
 21 22  2  0
 17 23  1  0
 23 24  2  0
 24 25  1  0
 25 26  2  0
 26 27  1  0
 27 28  2  0
 21  4  1  0
 13  7  1  0
 20 15  1  0
 28 23  1  0
M  END
>  <activity_comment>  (99) 
active

>  <activity_id>  (99) 
9622583

>  <activity_properties>  (99) 
[]

>  <assay_chembl_id>  (99) 
CHEMBL1963787

>  <assay_description>  (99) 
PUBCHEM_BIOASSAY: Navigating the Kinome. (Class of assay: other) Panel member name: CAMK2B

>  <assay_type>  (99) 
F

>  <bao_endpoint>  (99) 
BAO_0000192

>  <bao_format>  (99) 
BAO_0000019

>  <bao_label>  (99) 
assay format

>  <canonical_smiles>  (99) 
NC(=O)C1=CN(c2ccc(O)cc2Cl)c3cc(ccc3C1=O)c4ccncc4

>  <data_validity_comment>  (99) 
nan

>  <data_validity_description>  (99) 
nan

>  <document_chembl_id>  (99) 
CHEMBL1201862

>  <document_journal>  (99) 
nan

>  <document_year>  (99) 
nan

>  <ligand_efficiency>  (99) 
nan

>  <molecule_pref_name>  (99) 
nan

>  <parent_molecule_chembl_id>  (99) 
CHEMBL340384

>  <pchembl_value>  (99) 
5.4

>  <potential_duplicate>  (99) 
False

>  <qudt_units>  (99) 
http://www.openphacts.org/units/Nanomolar

>  <record_id>  (99) 
1585236

>  <relation>  (99) 
=

>  <src_id>  (99) 
7

>  <standard_flag>  (99) 
True

>  <standard_relation>  (99) 
=

>  <standard_text_value>  (99) 
nan

>  <standard_type>  (99) 
Ki

>  <standard_units>  (99) 
nM

>  <standard_upper_value>  (99) 
nan

>  <standard_value>  (99) 
3981.07

>  <target_chembl_id>  (99) 
CHEMBL4121

>  <target_organism>  (99) 
Homo sapiens

>  <target_pref_name>  (99) 
CaM kinase II beta

>  <target_tax_id>  (99) 
9606

>  <text_value>  (99) 
nan

>  <toid>  (99) 
nan

>  <type>  (99) 
pKi

>  <units>  (99) 
nan

>  <uo_units>  (99) 
UO_0000065

>  <upper_value>  (99) 
nan

>  <value>  (99) 
5.4

>  <SMILES>  (99) 
NC(=O)C1=CN(c2ccc(O)cc2Cl)c3cc(ccc3C1=O)c4ccncc4

>  <NAME>  (99) 
CHEMBL340384

>  <FILTER>  (99) 
OK

>  <MW>  (99) 
391.814

>  <LogP>  (99) 
3.5106

>  <HBD>  (99) 
2

>  <HBA>  (99) 
5

>  <TPSA>  (99) 
98.21

>  <Label>  (99) 
CAMK2B

$$$$
CHEMBL2000354
     RDKit          2D

 23 25  0  0  0  0  0  0  0  0999 V2000
    3.7500   -1.2990    0.0000 C   0  0  0  0  0  0  0  0  0  0  0  0
    3.0000    0.0000    0.0000 O   0  0  0  0  0  0  0  0  0  0  0  0
    1.5000    0.0000    0.0000 C   0  0  0  0  0  0  0  0  0  0  0  0
    0.7500   -1.2990    0.0000 C   0  0  0  0  0  0  0  0  0  0  0  0
   -0.7500   -1.2990    0.0000 C   0  0  0  0  0  0  0  0  0  0  0  0
   -1.5000    0.0000    0.0000 C   0  0  0  0  0  0  0  0  0  0  0  0
   -3.0000    0.0000    0.0000 C   0  0  0  0  0  0  0  0  0  0  0  0
   -3.7500    1.2990    0.0000 C   0  0  0  0  0  0  0  0  0  0  0  0
   -5.2418    1.4558    0.0000 S   0  0  0  0  0  0  0  0  0  0  0  0
   -5.5537    2.9231    0.0000 C   0  0  0  0  0  0  0  0  0  0  0  0
   -6.9240    3.5332    0.0000 N   0  0  0  0  0  0  0  0  0  0  0  0
   -7.0808    5.0249    0.0000 C   0  0  0  0  0  0  0  0  0  0  0  0
   -5.8672    5.9066    0.0000 C   0  0  0  0  0  0  0  0  0  0  0  0
   -6.0240    7.3984    0.0000 C   0  0  0  0  0  0  0  0  0  0  0  0
   -7.3943    8.0085    0.0000 C   0  0  0  0  0  0  0  0  0  0  0  0
   -8.6079    7.1268    0.0000 C   0  0  0  0  0  0  0  0  0  0  0  0
   -8.4511    5.6350    0.0000 C   0  0  0  0  0  0  0  0  0  0  0  0
   -4.2546    3.6731    0.0000 N   0  0  0  0  0  0  0  0  0  0  0  0
   -3.1399    2.6694    0.0000 C   0  0  0  0  0  0  0  0  0  0  0  0
   -1.6727    2.9812    0.0000 O   0  0  0  0  0  0  0  0  0  0  0  0
   -0.7500    1.2990    0.0000 C   0  0  0  0  0  0  0  0  0  0  0  0
    0.7500    1.2990    0.0000 C   0  0  0  0  0  0  0  0  0  0  0  0
    1.5000    2.5981    0.0000 O   0  0  0  0  0  0  0  0  0  0  0  0
  1  2  1  0
  2  3  1  0
  3  4  2  0
  4  5  1  0
  5  6  2  0
  6  7  1  0
  7  8  2  3
  8  9  1  0
  9 10  1  0
 10 11  2  3
 11 12  1  0
 12 13  2  0
 13 14  1  0
 14 15  2  0
 15 16  1  0
 16 17  2  0
 10 18  1  0
 18 19  1  0
 19 20  2  0
  6 21  1  0
 21 22  2  0
 22 23  1  0
 22  3  1  0
 19  8  1  0
 17 12  1  0
M  END
>  <activity_comment>  (100) 
active

>  <activity_id>  (100) 
9622587

>  <activity_properties>  (100) 
[]

>  <assay_chembl_id>  (100) 
CHEMBL1963787

>  <assay_description>  (100) 
PUBCHEM_BIOASSAY: Navigating the Kinome. (Class of assay: other) Panel member name: CAMK2B

>  <assay_type>  (100) 
F

>  <bao_endpoint>  (100) 
BAO_0000192

>  <bao_format>  (100) 
BAO_0000019

>  <bao_label>  (100) 
assay format

>  <canonical_smiles>  (100) 
COc1ccc(C=C2SC(=Nc3ccccc3)NC2=O)cc1O

>  <data_validity_comment>  (100) 
nan

>  <data_validity_description>  (100) 
nan

>  <document_chembl_id>  (100) 
CHEMBL1201862

>  <document_journal>  (100) 
nan

>  <document_year>  (100) 
nan

>  <ligand_efficiency>  (100) 
nan

>  <molecule_pref_name>  (100) 
nan

>  <parent_molecule_chembl_id>  (100) 
CHEMBL2000354

>  <pchembl_value>  (100) 
5.6

>  <potential_duplicate>  (100) 
False

>  <qudt_units>  (100) 
http://www.openphacts.org/units/Nanomolar

>  <record_id>  (100) 
1585090

>  <relation>  (100) 
=

>  <src_id>  (100) 
7

>  <standard_flag>  (100) 
True

>  <standard_relation>  (100) 
=

>  <standard_text_value>  (100) 
nan

>  <standard_type>  (100) 
Ki

>  <standard_units>  (100) 
nM

>  <standard_upper_value>  (100) 
nan

>  <standard_value>  (100) 
2511.89

>  <target_chembl_id>  (100) 
CHEMBL4121

>  <target_organism>  (100) 
Homo sapiens

>  <target_pref_name>  (100) 
CaM kinase II beta

>  <target_tax_id>  (100) 
9606

>  <text_value>  (100) 
nan

>  <toid>  (100) 
nan

>  <type>  (100) 
pKi

>  <units>  (100) 
nan

>  <uo_units>  (100) 
UO_0000065

>  <upper_value>  (100) 
nan

>  <value>  (100) 
5.6

>  <SMILES>  (100) 
COc1ccc(C=C2SC(=Nc3ccccc3)NC2=O)cc1O

>  <NAME>  (100) 
CHEMBL2000354

>  <FILTER>  (100) 
OK

>  <MW>  (100) 
326.377

>  <LogP>  (100) 
3.2924

>  <HBD>  (100) 
2

>  <HBA>  (100) 
5

>  <TPSA>  (100) 
70.92

>  <Label>  (100) 
CAMK2B

$$$$
CHEMBL1965507
     RDKit          2D

 30 33  0  0  0  0  0  0  0  0999 V2000
  -16.2822   -4.8900    0.0000 C   0  0  0  0  0  0  0  0  0  0  0  0
  -14.8556   -4.4264    0.0000 C   0  0  0  0  0  0  0  0  0  0  0  0
  -14.5438   -2.9592    0.0000 C   0  0  0  0  0  0  0  0  0  0  0  0
  -13.1172   -2.4957    0.0000 C   0  0  0  0  0  0  0  0  0  0  0  0
  -12.0025   -3.4994    0.0000 C   0  0  0  0  0  0  0  0  0  0  0  0
  -12.3143   -4.9666    0.0000 C   0  0  0  0  0  0  0  0  0  0  0  0
  -11.1996   -5.9703    0.0000 N   0  0  0  0  0  0  0  0  0  0  0  0
   -9.7730   -5.5068    0.0000 C   0  0  0  0  0  0  0  0  0  0  0  0
   -9.4612   -4.0396    0.0000 O   0  0  0  0  0  0  0  0  0  0  0  0
   -8.6583   -6.5105    0.0000 N   0  0  0  0  0  0  0  0  0  0  0  0
   -7.2317   -6.0469    0.0000 C   0  0  0  0  0  0  0  0  0  0  0  0
   -6.1170   -7.0506    0.0000 C   0  0  0  0  0  0  0  0  0  0  0  0
   -4.6904   -6.5871    0.0000 C   0  0  0  0  0  0  0  0  0  0  0  0
   -4.3786   -5.1199    0.0000 C   0  0  0  0  0  0  0  0  0  0  0  0
   -2.9520   -4.6564    0.0000 N   0  0  0  0  0  0  0  0  0  0  0  0
   -2.6401   -3.1891    0.0000 C   0  0  0  0  0  0  0  0  0  0  0  0
   -3.7548   -2.1855    0.0000 O   0  0  0  0  0  0  0  0  0  0  0  0
   -1.2135   -2.7256    0.0000 C   0  0  0  0  0  0  0  0  0  0  0  0
    0.0000   -3.6073    0.0000 C   0  0  0  0  0  0  0  0  0  0  0  0
    1.2135   -2.7256    0.0000 S   0  0  0  0  0  0  0  0  0  0  0  0
    0.7500   -1.2990    0.0000 C   0  0  0  0  0  0  0  0  0  0  0  0
    1.5000    0.0000    0.0000 N   0  0  0  0  0  0  0  0  0  0  0  0
    0.7500    1.2990    0.0000 C   0  0  0  0  0  0  0  0  0  0  0  0
   -0.7500    1.2990    0.0000 N   0  0  0  0  0  0  0  0  0  0  0  0
   -1.5000    0.0000    0.0000 C   0  0  0  0  0  0  0  0  0  0  0  0
   -3.0000    0.0000    0.0000 N   0  0  0  0  0  0  0  0  0  0  0  0
   -0.7500   -1.2990    0.0000 C   0  0  0  0  0  0  0  0  0  0  0  0
   -5.4933   -4.1162    0.0000 C   0  0  0  0  0  0  0  0  0  0  0  0
   -6.9199   -4.5797    0.0000 C   0  0  0  0  0  0  0  0  0  0  0  0
  -13.7409   -5.4301    0.0000 C   0  0  0  0  0  0  0  0  0  0  0  0
  1  2  1  0
  2  3  2  0
  3  4  1  0
  4  5  2  0
  5  6  1  0
  6  7  1  0
  7  8  1  0
  8  9  2  0
  8 10  1  0
 10 11  1  0
 11 12  2  0
 12 13  1  0
 13 14  2  0
 14 15  1  0
 15 16  1  0
 16 17  2  0
 16 18  1  0
 18 19  2  0
 19 20  1  0
 20 21  1  0
 21 22  2  0
 22 23  1  0
 23 24  2  0
 24 25  1  0
 25 26  1  0
 25 27  2  0
 14 28  1  0
 28 29  2  0
  6 30  2  0
 30  2  1  0
 29 11  1  0
 27 18  1  0
 27 21  1  0
M  END
>  <activity_comment>  (101) 
active

>  <activity_id>  (101) 
9622588

>  <activity_properties>  (101) 
[]

>  <assay_chembl_id>  (101) 
CHEMBL1963787

>  <assay_description>  (101) 
PUBCHEM_BIOASSAY: Navigating the Kinome. (Class of assay: other) Panel member name: CAMK2B

>  <assay_type>  (101) 
F

>  <bao_endpoint>  (101) 
BAO_0000192

>  <bao_format>  (101) 
BAO_0000019

>  <bao_label>  (101) 
assay format

>  <canonical_smiles>  (101) 
Cc1cccc(NC(=O)Nc2ccc(NC(=O)c3csc4ncnc(N)c34)cc2)c1

>  <data_validity_comment>  (101) 
nan

>  <data_validity_description>  (101) 
nan

>  <document_chembl_id>  (101) 
CHEMBL1201862

>  <document_journal>  (101) 
nan

>  <document_year>  (101) 
nan

>  <ligand_efficiency>  (101) 
nan

>  <molecule_pref_name>  (101) 
nan

>  <parent_molecule_chembl_id>  (101) 
CHEMBL1965507

>  <pchembl_value>  (101) 
5.4

>  <potential_duplicate>  (101) 
False

>  <qudt_units>  (101) 
http://www.openphacts.org/units/Nanomolar

>  <record_id>  (101) 
1584237

>  <relation>  (101) 
=

>  <src_id>  (101) 
7

>  <standard_flag>  (101) 
True

>  <standard_relation>  (101) 
=

>  <standard_text_value>  (101) 
nan

>  <standard_type>  (101) 
Ki

>  <standard_units>  (101) 
nM

>  <standard_upper_value>  (101) 
nan

>  <standard_value>  (101) 
3981.07

>  <target_chembl_id>  (101) 
CHEMBL4121

>  <target_organism>  (101) 
Homo sapiens

>  <target_pref_name>  (101) 
CaM kinase II beta

>  <target_tax_id>  (101) 
9606

>  <text_value>  (101) 
nan

>  <toid>  (101) 
nan

>  <type>  (101) 
pKi

>  <units>  (101) 
nan

>  <uo_units>  (101) 
UO_0000065

>  <upper_value>  (101) 
nan

>  <value>  (101) 
5.4

>  <SMILES>  (101) 
Cc1cccc(NC(=O)Nc2ccc(NC(=O)c3csc4ncnc(N)c34)cc2)c1

>  <NAME>  (101) 
CHEMBL1965507

>  <FILTER>  (101) 
OK

>  <MW>  (101) 
418.482

>  <LogP>  (101) 
4.47822

>  <HBD>  (101) 
4

>  <HBA>  (101) 
6

>  <TPSA>  (101) 
122.03

>  <Label>  (101) 
CAMK2B

$$$$
CHEMBL592030
     RDKit          2D

 32 37  0  0  0  0  0  0  0  0999 V2000
   -4.6904   -6.5871    0.0000 N   0  0  0  0  0  0  0  0  0  0  0  0
   -4.3786   -5.1199    0.0000 C   0  0  0  0  0  0  0  0  0  0  0  0
   -2.9520   -4.6564    0.0000 C   0  0  0  0  0  0  0  0  0  0  0  0
   -2.6401   -3.1891    0.0000 C   0  0  0  0  0  0  0  0  0  0  0  0
   -1.2135   -2.7256    0.0000 N   0  0  0  0  0  0  0  0  0  0  0  0
   -0.0000   -3.6073    0.0000 C   0  0  0  0  0  0  0  0  0  0  0  0
    1.2135   -2.7256    0.0000 C   0  0  0  0  0  0  0  0  0  0  0  0
    2.6401   -3.1891    0.0000 C   0  0  0  0  0  0  0  0  0  0  0  0
    3.7548   -2.1855    0.0000 C   0  0  0  0  0  0  0  0  0  0  0  0
    5.1814   -2.6490    0.0000 C   0  0  0  0  0  0  0  0  0  0  0  0
    6.2961   -1.6453    0.0000 C   0  0  0  0  0  0  0  0  0  0  0  0
    7.7634   -1.9571    0.0000 C   0  0  0  0  0  0  0  0  0  0  0  0
    8.5134   -0.6581    0.0000 C   0  0  0  0  0  0  0  0  0  0  0  0
    9.9806   -0.3462    0.0000 C   0  0  0  0  0  0  0  0  0  0  0  0
   10.4441    1.0803    0.0000 C   0  0  0  0  0  0  0  0  0  0  0  0
    9.4404    2.1951    0.0000 C   0  0  0  0  0  0  0  0  0  0  0  0
    7.9732    1.8832    0.0000 C   0  0  0  0  0  0  0  0  0  0  0  0
    7.5097    0.4566    0.0000 C   0  0  0  0  0  0  0  0  0  0  0  0
    6.1393   -0.1535    0.0000 S   0  0  0  0  0  0  0  0  0  0  0  0
    5.4933   -4.1162    0.0000 C   0  0  0  0  0  0  0  0  0  0  0  0
    6.7923   -4.8662    0.0000 N   0  0  0  0  0  0  0  0  0  0  0  0
    6.4805   -6.3334    0.0000 N   0  0  0  0  0  0  0  0  0  0  0  0
    4.9887   -6.4902    0.0000 C   0  0  0  0  0  0  0  0  0  0  0  0
    4.3786   -5.1199    0.0000 C   0  0  0  0  0  0  0  0  0  0  0  0
    2.9520   -4.6564    0.0000 C   0  0  0  0  0  0  0  0  0  0  0  0
    0.7500   -1.2990    0.0000 C   0  0  0  0  0  0  0  0  0  0  0  0
    1.5000    0.0000    0.0000 N   0  0  0  0  0  0  0  0  0  0  0  0
    0.7500    1.2990    0.0000 C   0  0  0  0  0  0  0  0  0  0  0  0
    1.5000    2.5981    0.0000 N   0  0  0  0  0  0  0  0  0  0  0  0
   -0.7500    1.2990    0.0000 N   0  0  0  0  0  0  0  0  0  0  0  0
   -1.5000    0.0000    0.0000 C   0  0  0  0  0  0  0  0  0  0  0  0
   -0.7500   -1.2990    0.0000 C   0  0  0  0  0  0  0  0  0  0  0  0
  1  2  1  0
  2  3  1  0
  3  4  1  0
  4  5  1  0
  5  6  1  0
  6  7  2  0
  7  8  1  0
  8  9  2  0
  9 10  1  0
 10 11  1  0
 11 12  2  0
 12 13  1  0
 13 14  2  0
 14 15  1  0
 15 16  2  0
 16 17  1  0
 17 18  2  0
 18 19  1  0
 10 20  2  0
 20 21  1  0
 21 22  1  0
 22 23  2  0
 23 24  1  0
 24 25  2  0
  7 26  1  0
 26 27  2  0
 27 28  1  0
 28 29  1  0
 28 30  2  0
 30 31  1  0
 31 32  2  0
 32  5  1  0
 25  8  1  0
 19 11  1  0
 18 13  1  0
 24 20  1  0
 32 26  1  0
M  END
>  <activity_comment>  (102) 
active

>  <activity_id>  (102) 
9622590

>  <activity_properties>  (102) 
[]

>  <assay_chembl_id>  (102) 
CHEMBL1963787

>  <assay_description>  (102) 
PUBCHEM_BIOASSAY: Navigating the Kinome. (Class of assay: other) Panel member name: CAMK2B

>  <assay_type>  (102) 
F

>  <bao_endpoint>  (102) 
BAO_0000192

>  <bao_format>  (102) 
BAO_0000019

>  <bao_label>  (102) 
assay format

>  <canonical_smiles>  (102) 
NCCCn1cc(c2cc(c3cc4ccccc4s3)c5[nH]ncc5c2)c6nc(N)ncc16

>  <data_validity_comment>  (102) 
nan

>  <data_validity_description>  (102) 
nan

>  <document_chembl_id>  (102) 
CHEMBL1201862

>  <document_journal>  (102) 
nan

>  <document_year>  (102) 
nan

>  <ligand_efficiency>  (102) 
nan

>  <molecule_pref_name>  (102) 
nan

>  <parent_molecule_chembl_id>  (102) 
CHEMBL592030

>  <pchembl_value>  (102) 
5.5

>  <potential_duplicate>  (102) 
False

>  <qudt_units>  (102) 
http://www.openphacts.org/units/Nanomolar

>  <record_id>  (102) 
1584842

>  <relation>  (102) 
=

>  <src_id>  (102) 
7

>  <standard_flag>  (102) 
True

>  <standard_relation>  (102) 
=

>  <standard_text_value>  (102) 
nan

>  <standard_type>  (102) 
Ki

>  <standard_units>  (102) 
nM

>  <standard_upper_value>  (102) 
nan

>  <standard_value>  (102) 
3162.28

>  <target_chembl_id>  (102) 
CHEMBL4121

>  <target_organism>  (102) 
Homo sapiens

>  <target_pref_name>  (102) 
CaM kinase II beta

>  <target_tax_id>  (102) 
9606

>  <text_value>  (102) 
nan

>  <toid>  (102) 
nan

>  <type>  (102) 
pKi

>  <units>  (102) 
nan

>  <uo_units>  (102) 
UO_0000065

>  <upper_value>  (102) 
nan

>  <value>  (102) 
5.5

>  <SMILES>  (102) 
NCCCn1cc(c2cc(c3cc4ccccc4s3)c5[nH]ncc5c2)c6nc(N)ncc16

>  <NAME>  (102) 
CHEMBL592030

>  <FILTER>  (102) 
OK

>  <MW>  (102) 
439.548

>  <LogP>  (102) 
4.7873

>  <HBD>  (102) 
3

>  <HBA>  (102) 
7

>  <TPSA>  (102) 
111.43

>  <Label>  (102) 
CAMK2B

$$$$
CHEMBL2000071
     RDKit          2D

 20 22  0  0  0  0  0  0  0  0999 V2000
    7.5000   -2.5981    0.0000 O   0  0  0  0  0  0  0  0  0  0  0  0
    6.0000   -2.5981    0.0000 C   0  0  0  0  0  0  0  0  0  0  0  0
    5.2500   -1.2990    0.0000 C   0  0  0  0  0  0  0  0  0  0  0  0
    3.7500   -1.2990    0.0000 C   0  0  0  0  0  0  0  0  0  0  0  0
    3.0000    0.0000    0.0000 N   0  0  0  0  0  0  0  0  0  0  0  0
    1.5000    0.0000    0.0000 C   0  0  0  0  0  0  0  0  0  0  0  0
    0.7500   -1.2990    0.0000 N   0  0  0  0  0  0  0  0  0  0  0  0
   -0.7500   -1.2990    0.0000 C   0  0  0  0  0  0  0  0  0  0  0  0
   -1.5000    0.0000    0.0000 N   0  0  0  0  0  0  0  0  0  0  0  0
   -0.7500    1.2990    0.0000 C   0  0  0  0  0  0  0  0  0  0  0  0
   -1.2135    2.7256    0.0000 N   0  0  0  0  0  0  0  0  0  0  0  0
   -0.0000    3.6073    0.0000 C   0  0  0  0  0  0  0  0  0  0  0  0
    1.2135    2.7256    0.0000 C   0  0  0  0  0  0  0  0  0  0  0  0
    2.6401    3.1891    0.0000 C   0  0  0  0  0  0  0  0  0  0  0  0
    3.7548    2.1855    0.0000 C   0  0  0  0  0  0  0  0  0  0  0  0
    5.1814    2.6490    0.0000 C   0  0  0  0  0  0  0  0  0  0  0  0
    5.4933    4.1162    0.0000 C   0  0  0  0  0  0  0  0  0  0  0  0
    4.3786    5.1199    0.0000 C   0  0  0  0  0  0  0  0  0  0  0  0
    2.9520    4.6564    0.0000 C   0  0  0  0  0  0  0  0  0  0  0  0
    0.7500    1.2990    0.0000 C   0  0  0  0  0  0  0  0  0  0  0  0
  1  2  1  0
  2  3  1  0
  3  4  1  0
  4  5  1  0
  5  6  1  0
  6  7  2  0
  7  8  1  0
  8  9  2  0
  9 10  1  0
 10 11  1  0
 11 12  1  0
 12 13  2  0
 13 14  1  0
 14 15  2  0
 15 16  1  0
 16 17  2  0
 17 18  1  0
 18 19  2  0
 13 20  1  0
 20  6  1  0
 20 10  2  0
 19 14  1  0
M  END
>  <activity_comment>  (103) 
active

>  <activity_id>  (103) 
9622591

>  <activity_properties>  (103) 
[]

>  <assay_chembl_id>  (103) 
CHEMBL1963787

>  <assay_description>  (103) 
PUBCHEM_BIOASSAY: Navigating the Kinome. (Class of assay: other) Panel member name: CAMK2B

>  <assay_type>  (103) 
F

>  <bao_endpoint>  (103) 
BAO_0000192

>  <bao_format>  (103) 
BAO_0000019

>  <bao_label>  (103) 
assay format

>  <canonical_smiles>  (103) 
OCCCNc1ncnc2[nH]cc(c3ccccc3)c12

>  <data_validity_comment>  (103) 
nan

>  <data_validity_description>  (103) 
nan

>  <document_chembl_id>  (103) 
CHEMBL1201862

>  <document_journal>  (103) 
nan

>  <document_year>  (103) 
nan

>  <ligand_efficiency>  (103) 
nan

>  <molecule_pref_name>  (103) 
nan

>  <parent_molecule_chembl_id>  (103) 
CHEMBL2000071

>  <pchembl_value>  (103) 
6.0

>  <potential_duplicate>  (103) 
False

>  <qudt_units>  (103) 
http://www.openphacts.org/units/Nanomolar

>  <record_id>  (103) 
1584094

>  <relation>  (103) 
=

>  <src_id>  (103) 
7

>  <standard_flag>  (103) 
True

>  <standard_relation>  (103) 
=

>  <standard_text_value>  (103) 
nan

>  <standard_type>  (103) 
Ki

>  <standard_units>  (103) 
nM

>  <standard_upper_value>  (103) 
nan

>  <standard_value>  (103) 
1000.0

>  <target_chembl_id>  (103) 
CHEMBL4121

>  <target_organism>  (103) 
Homo sapiens

>  <target_pref_name>  (103) 
CaM kinase II beta

>  <target_tax_id>  (103) 
9606

>  <text_value>  (103) 
nan

>  <toid>  (103) 
nan

>  <type>  (103) 
pKi

>  <units>  (103) 
nan

>  <uo_units>  (103) 
UO_0000065

>  <upper_value>  (103) 
nan

>  <value>  (103) 
6.0

>  <SMILES>  (103) 
OCCCNc1ncnc2[nH]cc(c3ccccc3)c12

>  <NAME>  (103) 
CHEMBL2000071

>  <FILTER>  (103) 
OK

>  <MW>  (103) 
268.32

>  <LogP>  (103) 
2.4192

>  <HBD>  (103) 
3

>  <HBA>  (103) 
4

>  <TPSA>  (103) 
73.83

>  <Label>  (103) 
CAMK2B

$$$$
CHEMBL1983195
     RDKit          2D

 28 31  0  0  0  0  0  0  0  0999 V2000
    7.5000   -2.5981    0.0000 C   0  0  0  0  0  0  0  0  0  0  0  0
    6.0000   -2.5981    0.0000 C   0  0  0  0  0  0  0  0  0  0  0  0
    5.2500   -1.2990    0.0000 N   0  0  0  0  0  0  0  0  0  0  0  0
    6.0000    0.0000    0.0000 C   0  0  0  0  0  0  0  0  0  0  0  0
    7.5000    0.0000    0.0000 C   0  0  0  0  0  0  0  0  0  0  0  0
    3.7500   -1.2990    0.0000 C   0  0  0  0  0  0  0  0  0  0  0  0
    3.0000   -2.5981    0.0000 O   0  0  0  0  0  0  0  0  0  0  0  0
    3.0000    0.0000    0.0000 N   0  0  0  0  0  0  0  0  0  0  0  0
    1.5000    0.0000    0.0000 C   0  0  0  0  0  0  0  0  0  0  0  0
    0.7500   -1.2990    0.0000 C   0  0  0  0  0  0  0  0  0  0  0  0
   -0.7500   -1.2990    0.0000 C   0  0  0  0  0  0  0  0  0  0  0  0
   -1.5000    0.0000    0.0000 C   0  0  0  0  0  0  0  0  0  0  0  0
   -3.0000    0.0000    0.0000 N   0  0  0  0  0  0  0  0  0  0  0  0
   -3.7500    1.2990    0.0000 C   0  0  0  0  0  0  0  0  0  0  0  0
   -5.2500    1.2990    0.0000 C   0  0  0  0  0  0  0  0  0  0  0  0
   -6.1317    0.0855    0.0000 O   0  0  0  0  0  0  0  0  0  0  0  0
   -7.5583    0.5490    0.0000 C   0  0  0  0  0  0  0  0  0  0  0  0
   -7.5583    2.0490    0.0000 C   0  0  0  0  0  0  0  0  0  0  0  0
   -6.1317    2.5126    0.0000 C   0  0  0  0  0  0  0  0  0  0  0  0
   -3.0000    2.5981    0.0000 C   0  0  0  0  0  0  0  0  0  0  0  0
   -1.5000    2.5981    0.0000 N   0  0  0  0  0  0  0  0  0  0  0  0
   -0.7500    1.2990    0.0000 C   0  0  0  0  0  0  0  0  0  0  0  0
    0.7500    1.2990    0.0000 C   0  0  0  0  0  0  0  0  0  0  0  0
   -3.7500    3.8971    0.0000 C   0  0  0  0  0  0  0  0  0  0  0  0
   -5.2418    4.0539    0.0000 O   0  0  0  0  0  0  0  0  0  0  0  0
   -5.5537    5.5211    0.0000 C   0  0  0  0  0  0  0  0  0  0  0  0
   -4.2546    6.2711    0.0000 C   0  0  0  0  0  0  0  0  0  0  0  0
   -3.1399    5.2674    0.0000 C   0  0  0  0  0  0  0  0  0  0  0  0
  1  2  1  0
  2  3  1  0
  3  4  1  0
  4  5  1  0
  3  6  1  0
  6  7  2  0
  6  8  1  0
  8  9  1  0
  9 10  2  0
 10 11  1  0
 11 12  2  0
 12 13  1  0
 13 14  2  0
 14 15  1  0
 15 16  1  0
 16 17  1  0
 17 18  2  0
 18 19  1  0
 14 20  1  0
 20 21  2  0
 21 22  1  0
 22 23  2  0
 20 24  1  0
 24 25  1  0
 25 26  1  0
 26 27  2  0
 27 28  1  0
 23  9  1  0
 22 12  1  0
 19 15  2  0
 28 24  2  0
M  END
>  <activity_comment>  (104) 
active

>  <activity_id>  (104) 
9622596

>  <activity_properties>  (104) 
[]

>  <assay_chembl_id>  (104) 
CHEMBL1963787

>  <assay_description>  (104) 
PUBCHEM_BIOASSAY: Navigating the Kinome. (Class of assay: other) Panel member name: CAMK2B

>  <assay_type>  (104) 
F

>  <bao_endpoint>  (104) 
BAO_0000192

>  <bao_format>  (104) 
BAO_0000019

>  <bao_label>  (104) 
assay format

>  <canonical_smiles>  (104) 
CCN(CC)C(=O)Nc1ccc2nc(c3occc3)c(nc2c1)c4occc4

>  <data_validity_comment>  (104) 
nan

>  <data_validity_description>  (104) 
nan

>  <document_chembl_id>  (104) 
CHEMBL1201862

>  <document_journal>  (104) 
nan

>  <document_year>  (104) 
nan

>  <ligand_efficiency>  (104) 
nan

>  <molecule_pref_name>  (104) 
nan

>  <parent_molecule_chembl_id>  (104) 
CHEMBL1983195

>  <pchembl_value>  (104) 
5.1

>  <potential_duplicate>  (104) 
False

>  <qudt_units>  (104) 
http://www.openphacts.org/units/Nanomolar

>  <record_id>  (104) 
1585152

>  <relation>  (104) 
=

>  <src_id>  (104) 
7

>  <standard_flag>  (104) 
True

>  <standard_relation>  (104) 
=

>  <standard_text_value>  (104) 
nan

>  <standard_type>  (104) 
Ki

>  <standard_units>  (104) 
nM

>  <standard_upper_value>  (104) 
nan

>  <standard_value>  (104) 
7943.28

>  <target_chembl_id>  (104) 
CHEMBL4121

>  <target_organism>  (104) 
Homo sapiens

>  <target_pref_name>  (104) 
CaM kinase II beta

>  <target_tax_id>  (104) 
9606

>  <text_value>  (104) 
nan

>  <toid>  (104) 
nan

>  <type>  (104) 
pKi

>  <units>  (104) 
nan

>  <uo_units>  (104) 
UO_0000065

>  <upper_value>  (104) 
nan

>  <value>  (104) 
5.1

>  <SMILES>  (104) 
CCN(CC)C(=O)Nc1ccc2nc(c3occc3)c(nc2c1)c4occc4

>  <NAME>  (104) 
CHEMBL1983195

>  <FILTER>  (104) 
OK

>  <MW>  (104) 
376.416

>  <LogP>  (104) 
5.0235

>  <HBD>  (104) 
1

>  <HBA>  (104) 
5

>  <TPSA>  (104) 
84.4

>  <Label>  (104) 
CAMK2B

$$$$
CHEMBL1975490
     RDKit          2D

 31 35  0  0  0  0  0  0  0  0999 V2000
    3.3802    9.0132    0.0000 N   0  0  0  0  0  0  0  0  0  0  0  0
    3.0684    7.5459    0.0000 C   0  0  0  0  0  0  0  0  0  0  0  0
    1.6418    7.0824    0.0000 C   0  0  0  0  0  0  0  0  0  0  0  0
    1.3299    5.6152    0.0000 C   0  0  0  0  0  0  0  0  0  0  0  0
   -0.0967    5.1517    0.0000 O   0  0  0  0  0  0  0  0  0  0  0  0
   -0.4086    3.6844    0.0000 C   0  0  0  0  0  0  0  0  0  0  0  0
    0.7062    2.6807    0.0000 C   0  0  0  0  0  0  0  0  0  0  0  0
    0.3943    1.2135    0.0000 C   0  0  0  0  0  0  0  0  0  0  0  0
    1.2760    0.0000    0.0000 C   0  0  0  0  0  0  0  0  0  0  0  0
    2.7760    0.0000    0.0000 O   0  0  0  0  0  0  0  0  0  0  0  0
    0.3943   -1.2135    0.0000 N   0  0  0  0  0  0  0  0  0  0  0  0
   -1.0323   -0.7500    0.0000 C   0  0  0  0  0  0  0  0  0  0  0  0
   -1.0323    0.7500    0.0000 C   0  0  0  0  0  0  0  0  0  0  0  0
   -2.1470    1.7537    0.0000 C   0  0  0  0  0  0  0  0  0  0  0  0
   -1.8351    3.2209    0.0000 C   0  0  0  0  0  0  0  0  0  0  0  0
   -3.5736    1.2902    0.0000 C   0  0  0  0  0  0  0  0  0  0  0  0
   -4.6883    2.2939    0.0000 C   0  0  0  0  0  0  0  0  0  0  0  0
   -6.1149    1.8303    0.0000 C   0  0  0  0  0  0  0  0  0  0  0  0
   -6.4268    0.3631    0.0000 C   0  0  0  0  0  0  0  0  0  0  0  0
   -7.8533   -0.1004    0.0000 N   0  0  0  0  0  0  0  0  0  0  0  0
   -8.9681    0.9033    0.0000 C   0  0  0  0  0  0  0  0  0  0  0  0
   -8.8113    2.3951    0.0000 O   0  0  0  0  0  0  0  0  0  0  0  0
  -10.1816    3.0052    0.0000 C   0  0  0  0  0  0  0  0  0  0  0  0
  -10.6451    4.4318    0.0000 C   0  0  0  0  0  0  0  0  0  0  0  0
  -12.1123    4.7436    0.0000 C   0  0  0  0  0  0  0  0  0  0  0  0
  -13.1160    3.6289    0.0000 C   0  0  0  0  0  0  0  0  0  0  0  0
  -12.6525    2.2023    0.0000 C   0  0  0  0  0  0  0  0  0  0  0  0
  -11.1853    1.8905    0.0000 C   0  0  0  0  0  0  0  0  0  0  0  0
  -10.4353    0.5914    0.0000 N   0  0  0  0  0  0  0  0  0  0  0  0
   -5.3120   -0.6406    0.0000 C   0  0  0  0  0  0  0  0  0  0  0  0
   -3.8855   -0.1771    0.0000 C   0  0  0  0  0  0  0  0  0  0  0  0
  1  2  1  0
  2  3  1  0
  3  4  1  0
  4  5  1  0
  5  6  1  0
  6  7  2  0
  7  8  1  0
  8  9  1  0
  9 10  2  0
  9 11  1  0
 11 12  1  0
 12 13  1  0
 13 14  1  0
 14 15  2  0
 14 16  1  0
 16 17  2  0
 17 18  1  0
 18 19  2  0
 19 20  1  0
 20 21  1  0
 21 22  1  0
 22 23  1  0
 23 24  2  0
 24 25  1  0
 25 26  2  0
 26 27  1  0
 27 28  2  0
 28 29  1  0
 19 30  1  0
 30 31  2  0
 15  6  1  0
 13  8  2  0
 31 16  1  0
 29 21  2  0
 28 23  1  0
M  END
>  <activity_comment>  (105) 
active

>  <activity_id>  (105) 
9622597

>  <activity_properties>  (105) 
[]

>  <assay_chembl_id>  (105) 
CHEMBL1963787

>  <assay_description>  (105) 
PUBCHEM_BIOASSAY: Navigating the Kinome. (Class of assay: other) Panel member name: CAMK2B

>  <assay_type>  (105) 
F

>  <bao_endpoint>  (105) 
BAO_0000192

>  <bao_format>  (105) 
BAO_0000019

>  <bao_label>  (105) 
assay format

>  <canonical_smiles>  (105) 
NCCCOc1cc2C(=O)NCc2c(c1)c3ccc(Nc4oc5ccccc5n4)cc3

>  <data_validity_comment>  (105) 
nan

>  <data_validity_description>  (105) 
nan

>  <document_chembl_id>  (105) 
CHEMBL1201862

>  <document_journal>  (105) 
nan

>  <document_year>  (105) 
nan

>  <ligand_efficiency>  (105) 
nan

>  <molecule_pref_name>  (105) 
nan

>  <parent_molecule_chembl_id>  (105) 
CHEMBL1975490

>  <pchembl_value>  (105) 
5.2

>  <potential_duplicate>  (105) 
False

>  <qudt_units>  (105) 
http://www.openphacts.org/units/Nanomolar

>  <record_id>  (105) 
1584532

>  <relation>  (105) 
=

>  <src_id>  (105) 
7

>  <standard_flag>  (105) 
True

>  <standard_relation>  (105) 
=

>  <standard_text_value>  (105) 
nan

>  <standard_type>  (105) 
Ki

>  <standard_units>  (105) 
nM

>  <standard_upper_value>  (105) 
nan

>  <standard_value>  (105) 
6309.57

>  <target_chembl_id>  (105) 
CHEMBL4121

>  <target_organism>  (105) 
Homo sapiens

>  <target_pref_name>  (105) 
CaM kinase II beta

>  <target_tax_id>  (105) 
9606

>  <text_value>  (105) 
nan

>  <toid>  (105) 
nan

>  <type>  (105) 
pKi

>  <units>  (105) 
nan

>  <uo_units>  (105) 
UO_0000065

>  <upper_value>  (105) 
nan

>  <value>  (105) 
5.2

>  <SMILES>  (105) 
NCCCOc1cc2C(=O)NCc2c(c1)c3ccc(Nc4oc5ccccc5n4)cc3

>  <NAME>  (105) 
CHEMBL1975490

>  <FILTER>  (105) 
OK

>  <MW>  (105) 
414.465

>  <LogP>  (105) 
4.2094

>  <HBD>  (105) 
3

>  <HBA>  (105) 
6

>  <TPSA>  (105) 
102.41

>  <Label>  (105) 
CAMK2B

$$$$
CHEMBL1979883
     RDKit          2D

 33 36  0  0  0  0  0  0  0  0999 V2000
   -3.6304   -8.2500    0.0000 C   0  0  0  0  0  0  0  0  0  0  0  0
   -3.6304   -6.7500    0.0000 N   0  0  0  0  0  0  0  0  0  0  0  0
   -4.9294   -6.0000    0.0000 C   0  0  0  0  0  0  0  0  0  0  0  0
   -2.3313   -6.0000    0.0000 C   0  0  0  0  0  0  0  0  0  0  0  0
   -2.3313   -4.5000    0.0000 C   0  0  0  0  0  0  0  0  0  0  0  0
   -2.3313   -3.0000    0.0000 C   0  0  0  0  0  0  0  0  0  0  0  0
   -2.3313   -1.5000    0.0000 C   0  0  0  0  0  0  0  0  0  0  0  0
   -3.6304   -0.7500    0.0000 C   0  0  0  0  0  0  0  0  0  0  0  0
   -3.6304    0.7500    0.0000 N   0  0  0  0  0  0  0  0  0  0  0  0
   -2.3313    1.5000    0.0000 C   0  0  0  0  0  0  0  0  0  0  0  0
   -2.3313    3.0000    0.0000 N   0  0  0  0  0  0  0  0  0  0  0  0
   -1.0323    0.7500    0.0000 C   0  0  0  0  0  0  0  0  0  0  0  0
    0.3943    1.2135    0.0000 C   0  0  0  0  0  0  0  0  0  0  0  0
    1.2760    0.0000    0.0000 C   0  0  0  0  0  0  0  0  0  0  0  0
    0.3943   -1.2135    0.0000 S   0  0  0  0  0  0  0  0  0  0  0  0
   -1.0323   -0.7500    0.0000 C   0  0  0  0  0  0  0  0  0  0  0  0
    0.8578    2.6401    0.0000 C   0  0  0  0  0  0  0  0  0  0  0  0
    2.3250    2.9520    0.0000 C   0  0  0  0  0  0  0  0  0  0  0  0
    2.7886    4.3786    0.0000 C   0  0  0  0  0  0  0  0  0  0  0  0
    1.7849    5.4933    0.0000 C   0  0  0  0  0  0  0  0  0  0  0  0
    2.2484    6.9199    0.0000 N   0  0  0  0  0  0  0  0  0  0  0  0
    3.7156    7.2317    0.0000 C   0  0  0  0  0  0  0  0  0  0  0  0
    4.7193    6.1170    0.0000 O   0  0  0  0  0  0  0  0  0  0  0  0
    4.1791    8.6583    0.0000 N   0  0  0  0  0  0  0  0  0  0  0  0
    5.6464    8.9702    0.0000 C   0  0  0  0  0  0  0  0  0  0  0  0
    6.6501    7.8555    0.0000 C   0  0  0  0  0  0  0  0  0  0  0  0
    8.1173    8.1673    0.0000 C   0  0  0  0  0  0  0  0  0  0  0  0
    8.5808    9.5939    0.0000 C   0  0  0  0  0  0  0  0  0  0  0  0
    7.5771   10.7086    0.0000 C   0  0  0  0  0  0  0  0  0  0  0  0
    8.0406   12.1352    0.0000 C   0  0  0  0  0  0  0  0  0  0  0  0
    6.1099   10.3968    0.0000 C   0  0  0  0  0  0  0  0  0  0  0  0
    0.3177    5.1814    0.0000 C   0  0  0  0  0  0  0  0  0  0  0  0
   -0.1459    3.7548    0.0000 C   0  0  0  0  0  0  0  0  0  0  0  0
  1  2  1  0
  2  3  1  0
  2  4  1  0
  4  5  1  0
  5  6  3  0
  6  7  1  0
  7  8  2  0
  8  9  1  0
  9 10  2  0
 10 11  1  0
 10 12  1  0
 12 13  1  0
 13 14  2  0
 14 15  1  0
 15 16  1  0
 13 17  1  0
 17 18  2  0
 18 19  1  0
 19 20  2  0
 20 21  1  0
 21 22  1  0
 22 23  2  0
 22 24  1  0
 24 25  1  0
 25 26  2  0
 26 27  1  0
 27 28  2  0
 28 29  1  0
 29 30  1  0
 29 31  2  0
 20 32  1  0
 32 33  2  0
 16  7  1  0
 16 12  2  0
 33 17  1  0
 31 25  1  0
M  END
>  <activity_comment>  (106) 
active

>  <activity_id>  (106) 
9622602

>  <activity_properties>  (106) 
[]

>  <assay_chembl_id>  (106) 
CHEMBL1963787

>  <assay_description>  (106) 
PUBCHEM_BIOASSAY: Navigating the Kinome. (Class of assay: other) Panel member name: CAMK2B

>  <assay_type>  (106) 
F

>  <bao_endpoint>  (106) 
BAO_0000192

>  <bao_format>  (106) 
BAO_0000019

>  <bao_label>  (106) 
assay format

>  <canonical_smiles>  (106) 
CN(C)CC#Cc1cnc(N)c2c(csc12)c3ccc(NC(=O)Nc4cccc(C)c4)cc3

>  <data_validity_comment>  (106) 
nan

>  <data_validity_description>  (106) 
nan

>  <document_chembl_id>  (106) 
CHEMBL1201862

>  <document_journal>  (106) 
nan

>  <document_year>  (106) 
nan

>  <ligand_efficiency>  (106) 
nan

>  <molecule_pref_name>  (106) 
nan

>  <parent_molecule_chembl_id>  (106) 
CHEMBL1979883

>  <pchembl_value>  (106) 
5.2

>  <potential_duplicate>  (106) 
False

>  <qudt_units>  (106) 
http://www.openphacts.org/units/Nanomolar

>  <record_id>  (106) 
1584162

>  <relation>  (106) 
=

>  <src_id>  (106) 
7

>  <standard_flag>  (106) 
True

>  <standard_relation>  (106) 
=

>  <standard_text_value>  (106) 
nan

>  <standard_type>  (106) 
Ki

>  <standard_units>  (106) 
nM

>  <standard_upper_value>  (106) 
nan

>  <standard_value>  (106) 
6309.57

>  <target_chembl_id>  (106) 
CHEMBL4121

>  <target_organism>  (106) 
Homo sapiens

>  <target_pref_name>  (106) 
CaM kinase II beta

>  <target_tax_id>  (106) 
9606

>  <text_value>  (106) 
nan

>  <toid>  (106) 
nan

>  <type>  (106) 
pKi

>  <units>  (106) 
nan

>  <uo_units>  (106) 
UO_0000065

>  <upper_value>  (106) 
nan

>  <value>  (106) 
5.2

>  <SMILES>  (106) 
CN(C)CC#Cc1cnc(N)c2c(csc12)c3ccc(NC(=O)Nc4cccc(C)c4)cc3

>  <NAME>  (106) 
CHEMBL1979883

>  <FILTER>  (106) 
OK

>  <MW>  (106) 
455.587

>  <LogP>  (106) 
5.41102

>  <HBD>  (106) 
3

>  <HBA>  (106) 
5

>  <TPSA>  (106) 
83.28

>  <Label>  (106) 
CAMK2B

$$$$
CHEMBL371206
     RDKit          2D

 29 32  0  0  0  0  0  0  0  0999 V2000
  -14.5438   -2.9592    0.0000 C   0  0  0  0  0  0  0  0  0  0  0  0
  -13.1172   -2.4957    0.0000 C   0  0  0  0  0  0  0  0  0  0  0  0
  -12.8053   -1.0285    0.0000 C   0  0  0  0  0  0  0  0  0  0  0  0
  -11.3787   -0.5649    0.0000 C   0  0  0  0  0  0  0  0  0  0  0  0
  -11.0669    0.9023    0.0000 C   0  0  0  0  0  0  0  0  0  0  0  0
  -10.2640   -1.5686    0.0000 C   0  0  0  0  0  0  0  0  0  0  0  0
  -10.5759   -3.0359    0.0000 C   0  0  0  0  0  0  0  0  0  0  0  0
   -9.4612   -4.0396    0.0000 N   0  0  0  0  0  0  0  0  0  0  0  0
   -8.0346   -3.5760    0.0000 C   0  0  0  0  0  0  0  0  0  0  0  0
   -7.7227   -2.1088    0.0000 O   0  0  0  0  0  0  0  0  0  0  0  0
   -6.9199   -4.5797    0.0000 N   0  0  0  0  0  0  0  0  0  0  0  0
   -5.4933   -4.1162    0.0000 C   0  0  0  0  0  0  0  0  0  0  0  0
   -4.3786   -5.1199    0.0000 C   0  0  0  0  0  0  0  0  0  0  0  0
   -2.9520   -4.6564    0.0000 C   0  0  0  0  0  0  0  0  0  0  0  0
   -2.6401   -3.1891    0.0000 C   0  0  0  0  0  0  0  0  0  0  0  0
   -3.7548   -2.1855    0.0000 C   0  0  0  0  0  0  0  0  0  0  0  0
   -5.1814   -2.6490    0.0000 C   0  0  0  0  0  0  0  0  0  0  0  0
   -1.2135   -2.7256    0.0000 C   0  0  0  0  0  0  0  0  0  0  0  0
    0.0000   -3.6073    0.0000 C   0  0  0  0  0  0  0  0  0  0  0  0
    0.0000   -5.1073    0.0000 C   0  0  0  0  0  0  0  0  0  0  0  0
    1.2135   -2.7256    0.0000 S   0  0  0  0  0  0  0  0  0  0  0  0
    0.7500   -1.2990    0.0000 C   0  0  0  0  0  0  0  0  0  0  0  0
    1.5000    0.0000    0.0000 N   0  0  0  0  0  0  0  0  0  0  0  0
    0.7500    1.2990    0.0000 C   0  0  0  0  0  0  0  0  0  0  0  0
   -0.7500    1.2990    0.0000 N   0  0  0  0  0  0  0  0  0  0  0  0
   -1.5000    0.0000    0.0000 C   0  0  0  0  0  0  0  0  0  0  0  0
   -3.0000    0.0000    0.0000 N   0  0  0  0  0  0  0  0  0  0  0  0
   -0.7500   -1.2990    0.0000 C   0  0  0  0  0  0  0  0  0  0  0  0
  -12.0025   -3.4994    0.0000 C   0  0  0  0  0  0  0  0  0  0  0  0
  1  2  1  0
  2  3  2  0
  3  4  1  0
  4  5  1  0
  4  6  2  0
  6  7  1  0
  7  8  1  0
  8  9  1  0
  9 10  2  0
  9 11  1  0
 11 12  1  0
 12 13  2  0
 13 14  1  0
 14 15  2  0
 15 16  1  0
 16 17  2  0
 15 18  1  0
 18 19  2  0
 19 20  1  0
 19 21  1  0
 21 22  1  0
 22 23  2  0
 23 24  1  0
 24 25  2  0
 25 26  1  0
 26 27  1  0
 26 28  2  0
  7 29  2  0
 29  2  1  0
 17 12  1  0
 28 18  1  0
 28 22  1  0
M  END
>  <activity_comment>  (107) 
active

>  <activity_id>  (107) 
9622608

>  <activity_properties>  (107) 
[]

>  <assay_chembl_id>  (107) 
CHEMBL1963787

>  <assay_description>  (107) 
PUBCHEM_BIOASSAY: Navigating the Kinome. (Class of assay: other) Panel member name: CAMK2B

>  <assay_type>  (107) 
F

>  <bao_endpoint>  (107) 
BAO_0000192

>  <bao_format>  (107) 
BAO_0000019

>  <bao_label>  (107) 
assay format

>  <canonical_smiles>  (107) 
Cc1cc(C)cc(NC(=O)Nc2ccc(cc2)c3c(C)sc4ncnc(N)c34)c1

>  <data_validity_comment>  (107) 
nan

>  <data_validity_description>  (107) 
nan

>  <document_chembl_id>  (107) 
CHEMBL1201862

>  <document_journal>  (107) 
nan

>  <document_year>  (107) 
nan

>  <ligand_efficiency>  (107) 
nan

>  <molecule_pref_name>  (107) 
nan

>  <parent_molecule_chembl_id>  (107) 
CHEMBL371206

>  <pchembl_value>  (107) 
5.6

>  <potential_duplicate>  (107) 
False

>  <qudt_units>  (107) 
http://www.openphacts.org/units/Nanomolar

>  <record_id>  (107) 
1584176

>  <relation>  (107) 
=

>  <src_id>  (107) 
7

>  <standard_flag>  (107) 
True

>  <standard_relation>  (107) 
=

>  <standard_text_value>  (107) 
nan

>  <standard_type>  (107) 
Ki

>  <standard_units>  (107) 
nM

>  <standard_upper_value>  (107) 
nan

>  <standard_value>  (107) 
2511.89

>  <target_chembl_id>  (107) 
CHEMBL4121

>  <target_organism>  (107) 
Homo sapiens

>  <target_pref_name>  (107) 
CaM kinase II beta

>  <target_tax_id>  (107) 
9606

>  <text_value>  (107) 
nan

>  <toid>  (107) 
nan

>  <type>  (107) 
pKi

>  <units>  (107) 
nan

>  <uo_units>  (107) 
UO_0000065

>  <upper_value>  (107) 
nan

>  <value>  (107) 
5.6

>  <SMILES>  (107) 
Cc1cc(C)cc(NC(=O)Nc2ccc(cc2)c3c(C)sc4ncnc(N)c34)c1

>  <NAME>  (107) 
CHEMBL371206

>  <FILTER>  (107) 
OK

>  <MW>  (107) 
403.511

>  <LogP>  (107) 
5.50976

>  <HBD>  (107) 
3

>  <HBA>  (107) 
5

>  <TPSA>  (107) 
92.93

>  <Label>  (107) 
CAMK2B

$$$$
CHEMBL205526
     RDKit          2D

 32 35  0  0  0  0  0  0  0  0999 V2000
   -1.6565  -10.7711    0.0000 C   0  0  0  0  0  0  0  0  0  0  0  0
   -2.9556  -10.0211    0.0000 C   0  0  0  0  0  0  0  0  0  0  0  0
   -4.2546  -10.7711    0.0000 C   0  0  0  0  0  0  0  0  0  0  0  0
   -2.9556   -8.5211    0.0000 C   0  0  0  0  0  0  0  0  0  0  0  0
   -4.2546   -7.7711    0.0000 N   0  0  0  0  0  0  0  0  0  0  0  0
   -5.5537   -8.5211    0.0000 C   0  0  0  0  0  0  0  0  0  0  0  0
   -5.5537  -10.0211    0.0000 O   0  0  0  0  0  0  0  0  0  0  0  0
   -6.8527   -7.7711    0.0000 N   0  0  0  0  0  0  0  0  0  0  0  0
   -8.1517   -8.5211    0.0000 C   0  0  0  0  0  0  0  0  0  0  0  0
   -6.8527   -6.2711    0.0000 C   0  0  0  0  0  0  0  0  0  0  0  0
   -8.1517   -5.5211    0.0000 O   0  0  0  0  0  0  0  0  0  0  0  0
   -5.5537   -5.5211    0.0000 C   0  0  0  0  0  0  0  0  0  0  0  0
   -5.2418   -4.0539    0.0000 C   0  0  0  0  0  0  0  0  0  0  0  0
   -6.2455   -2.9392    0.0000 S   0  0  0  0  0  0  0  0  0  0  0  0
   -5.7820   -1.5126    0.0000 C   0  0  0  0  0  0  0  0  0  0  0  0
   -6.7856   -0.3979    0.0000 C   0  0  0  0  0  0  0  0  0  0  0  0
   -6.3221    1.0287    0.0000 C   0  0  0  0  0  0  0  0  0  0  0  0
   -7.3258    2.1434    0.0000 O   0  0  0  0  0  0  0  0  0  0  0  0
   -3.7500   -3.8971    0.0000 C   0  0  0  0  0  0  0  0  0  0  0  0
   -3.0000   -2.5981    0.0000 C   0  0  0  0  0  0  0  0  0  0  0  0
   -1.5000   -2.5981    0.0000 C   0  0  0  0  0  0  0  0  0  0  0  0
   -0.7500   -3.8971    0.0000 C   0  0  0  0  0  0  0  0  0  0  0  0
    0.7500   -3.8971    0.0000 C   0  0  0  0  0  0  0  0  0  0  0  0
    1.5000   -2.5981    0.0000 C   0  0  0  0  0  0  0  0  0  0  0  0
    0.7500   -1.2990    0.0000 C   0  0  0  0  0  0  0  0  0  0  0  0
    1.5000    0.0000    0.0000 C   0  0  0  0  0  0  0  0  0  0  0  0
    0.7500    1.2990    0.0000 C   0  0  0  0  0  0  0  0  0  0  0  0
   -0.7500    1.2990    0.0000 C   0  0  0  0  0  0  0  0  0  0  0  0
   -1.5000    0.0000    0.0000 C   0  0  0  0  0  0  0  0  0  0  0  0
   -0.7500   -1.2990    0.0000 C   0  0  0  0  0  0  0  0  0  0  0  0
   -3.1399   -5.2674    0.0000 S   0  0  0  0  0  0  0  0  0  0  0  0
   -4.2546   -6.2711    0.0000 C   0  0  0  0  0  0  0  0  0  0  0  0
  1  2  1  0
  2  3  1  0
  2  4  1  0
  4  5  1  0
  5  6  1  0
  6  7  2  0
  6  8  1  0
  8  9  1  0
  8 10  1  0
 10 11  2  0
 10 12  1  0
 12 13  1  0
 13 14  1  0
 14 15  1  0
 15 16  1  0
 16 17  1  0
 17 18  1  0
 13 19  2  0
 19 20  1  0
 20 21  1  0
 21 22  2  0
 22 23  1  0
 23 24  2  0
 24 25  1  0
 25 26  2  0
 26 27  1  0
 27 28  2  0
 28 29  1  0
 29 30  2  0
 19 31  1  0
 31 32  1  0
 32  5  1  0
 32 12  2  0
 30 21  1  0
 30 25  1  0
M  END
>  <activity_comment>  (108) 
active

>  <activity_id>  (108) 
9626163

>  <activity_properties>  (108) 
[]

>  <assay_chembl_id>  (108) 
CHEMBL1963787

>  <assay_description>  (108) 
PUBCHEM_BIOASSAY: Navigating the Kinome. (Class of assay: other) Panel member name: CAMK2B

>  <assay_type>  (108) 
F

>  <bao_endpoint>  (108) 
BAO_0000192

>  <bao_format>  (108) 
BAO_0000019

>  <bao_label>  (108) 
assay format

>  <canonical_smiles>  (108) 
CC(C)CN1C(=O)N(C)C(=O)c2c(SCCCO)c(Cc3cccc4ccccc34)sc12

>  <data_validity_comment>  (108) 
nan

>  <data_validity_description>  (108) 
nan

>  <document_chembl_id>  (108) 
CHEMBL1201862

>  <document_journal>  (108) 
nan

>  <document_year>  (108) 
nan

>  <ligand_efficiency>  (108) 
nan

>  <molecule_pref_name>  (108) 
nan

>  <parent_molecule_chembl_id>  (108) 
CHEMBL205526

>  <pchembl_value>  (108) 
5.4

>  <potential_duplicate>  (108) 
False

>  <qudt_units>  (108) 
http://www.openphacts.org/units/Nanomolar

>  <record_id>  (108) 
1585494

>  <relation>  (108) 
=

>  <src_id>  (108) 
7

>  <standard_flag>  (108) 
True

>  <standard_relation>  (108) 
=

>  <standard_text_value>  (108) 
nan

>  <standard_type>  (108) 
Ki

>  <standard_units>  (108) 
nM

>  <standard_upper_value>  (108) 
nan

>  <standard_value>  (108) 
3981.07

>  <target_chembl_id>  (108) 
CHEMBL4121

>  <target_organism>  (108) 
Homo sapiens

>  <target_pref_name>  (108) 
CaM kinase II beta

>  <target_tax_id>  (108) 
9606

>  <text_value>  (108) 
nan

>  <toid>  (108) 
nan

>  <type>  (108) 
pKi

>  <units>  (108) 
nan

>  <uo_units>  (108) 
UO_0000065

>  <upper_value>  (108) 
nan

>  <value>  (108) 
5.4

>  <SMILES>  (108) 
CC(C)CN1C(=O)N(C)C(=O)c2c(SCCCO)c(Cc3cccc4ccccc34)sc12

>  <NAME>  (108) 
CHEMBL205526

>  <FILTER>  (108) 
OK

>  <MW>  (108) 
468.644

>  <LogP>  (108) 
4.6362

>  <HBD>  (108) 
1

>  <HBA>  (108) 
7

>  <TPSA>  (108) 
64.23

>  <Label>  (108) 
CAMK2B

$$$$
CHEMBL1968705
     RDKit          2D

 40 45  0  0  0  0  0  0  0  0999 V2000
   -0.7500  -14.2894    0.0000 C   0  0  0  0  0  0  0  0  0  0  0  0
   -1.5000  -12.9904    0.0000 C   0  0  0  0  0  0  0  0  0  0  0  0
   -0.7500  -11.6913    0.0000 C   0  0  0  0  0  0  0  0  0  0  0  0
   -1.5000  -10.3923    0.0000 C   0  0  0  0  0  0  0  0  0  0  0  0
   -3.0000  -10.3923    0.0000 O   0  0  0  0  0  0  0  0  0  0  0  0
   -0.7500   -9.0933    0.0000 N   0  0  0  0  0  0  0  0  0  0  0  0
   -1.5000   -7.7942    0.0000 C   0  0  0  0  0  0  0  0  0  0  0  0
   -3.0000   -7.7942    0.0000 C   0  0  0  0  0  0  0  0  0  0  0  0
   -3.7500   -6.4952    0.0000 C   0  0  0  0  0  0  0  0  0  0  0  0
   -3.0000   -5.1962    0.0000 C   0  0  0  0  0  0  0  0  0  0  0  0
   -1.5000   -5.1962    0.0000 C   0  0  0  0  0  0  0  0  0  0  0  0
   -0.7500   -6.4952    0.0000 C   0  0  0  0  0  0  0  0  0  0  0  0
   -0.7500   -3.8971    0.0000 C   0  0  0  0  0  0  0  0  0  0  0  0
    0.7500   -3.8971    0.0000 N   0  0  0  0  0  0  0  0  0  0  0  0
    1.5000   -2.5981    0.0000 C   0  0  0  0  0  0  0  0  0  0  0  0
    3.0000   -2.5981    0.0000 N   0  0  0  0  0  0  0  0  0  0  0  0
    3.7500   -3.8971    0.0000 C   0  0  0  0  0  0  0  0  0  0  0  0
    3.0000   -5.1962    0.0000 C   0  0  0  0  0  0  0  0  0  0  0  0
    3.7500   -6.4952    0.0000 C   0  0  0  0  0  0  0  0  0  0  0  0
    5.2500   -6.4952    0.0000 C   0  0  0  0  0  0  0  0  0  0  0  0
    6.2537   -7.6099    0.0000 N   0  0  0  0  0  0  0  0  0  0  0  0
    7.6240   -6.9998    0.0000 N   0  0  0  0  0  0  0  0  0  0  0  0
    7.4672   -5.5080    0.0000 C   0  0  0  0  0  0  0  0  0  0  0  0
    6.0000   -5.1962    0.0000 C   0  0  0  0  0  0  0  0  0  0  0  0
    5.2500   -3.8971    0.0000 C   0  0  0  0  0  0  0  0  0  0  0  0
    0.7500   -1.2990    0.0000 C   0  0  0  0  0  0  0  0  0  0  0  0
    1.5000    0.0000    0.0000 C   0  0  0  0  0  0  0  0  0  0  0  0
    0.7500    1.2990    0.0000 C   0  0  0  0  0  0  0  0  0  0  0  0
    1.5000    2.5981    0.0000 O   0  0  0  0  0  0  0  0  0  0  0  0
    3.0000    2.5981    0.0000 C   0  0  0  0  0  0  0  0  0  0  0  0
    3.7500    3.8971    0.0000 C   0  0  0  0  0  0  0  0  0  0  0  0
    5.2500    3.8971    0.0000 N   0  0  0  0  0  0  0  0  0  0  0  0
    6.1317    5.1106    0.0000 C   0  0  0  0  0  0  0  0  0  0  0  0
    7.5583    4.6471    0.0000 C   0  0  0  0  0  0  0  0  0  0  0  0
    7.5583    3.1471    0.0000 C   0  0  0  0  0  0  0  0  0  0  0  0
    6.1317    2.6836    0.0000 C   0  0  0  0  0  0  0  0  0  0  0  0
   -0.7500    1.2990    0.0000 C   0  0  0  0  0  0  0  0  0  0  0  0
   -1.5000    0.0000    0.0000 C   0  0  0  0  0  0  0  0  0  0  0  0
   -0.7500   -1.2990    0.0000 C   0  0  0  0  0  0  0  0  0  0  0  0
   -1.5000   -2.5981    0.0000 N   0  0  0  0  0  0  0  0  0  0  0  0
  1  2  1  0
  2  3  1  0
  3  4  1  0
  4  5  2  0
  4  6  1  0
  6  7  1  0
  7  8  2  0
  8  9  1  0
  9 10  2  0
 10 11  1  0
 11 12  2  0
 11 13  1  0
 13 14  2  0
 14 15  1  0
 15 16  1  0
 16 17  1  0
 17 18  2  0
 18 19  1  0
 19 20  2  0
 20 21  1  0
 21 22  1  0
 22 23  2  0
 23 24  1  0
 24 25  2  0
 15 26  2  0
 26 27  1  0
 27 28  2  0
 28 29  1  0
 29 30  1  0
 30 31  1  0
 31 32  1  0
 32 33  1  0
 33 34  1  0
 34 35  1  0
 35 36  1  0
 28 37  1  0
 37 38  2  0
 38 39  1  0
 39 40  2  0
 12  7  1  0
 40 13  1  0
 25 17  1  0
 24 20  1  0
 39 26  1  0
 36 32  1  0
M  END
>  <activity_comment>  (109) 
active

>  <activity_id>  (109) 
9626164

>  <activity_properties>  (109) 
[]

>  <assay_chembl_id>  (109) 
CHEMBL1963787

>  <assay_description>  (109) 
PUBCHEM_BIOASSAY: Navigating the Kinome. (Class of assay: other) Panel member name: CAMK2B

>  <assay_type>  (109) 
F

>  <bao_endpoint>  (109) 
BAO_0000192

>  <bao_format>  (109) 
BAO_0000019

>  <bao_label>  (109) 
assay format

>  <canonical_smiles>  (109) 
CCCC(=O)Nc1cccc(c1)c2nc(Nc3ccc4[nH]ncc4c3)c5cc(OCCN6CCCC6)ccc5n2

>  <data_validity_comment>  (109) 
nan

>  <data_validity_description>  (109) 
nan

>  <document_chembl_id>  (109) 
CHEMBL1201862

>  <document_journal>  (109) 
nan

>  <document_year>  (109) 
nan

>  <ligand_efficiency>  (109) 
nan

>  <molecule_pref_name>  (109) 
nan

>  <parent_molecule_chembl_id>  (109) 
CHEMBL1968705

>  <pchembl_value>  (109) 
5.5

>  <potential_duplicate>  (109) 
False

>  <qudt_units>  (109) 
http://www.openphacts.org/units/Nanomolar

>  <record_id>  (109) 
1585423

>  <relation>  (109) 
=

>  <src_id>  (109) 
7

>  <standard_flag>  (109) 
True

>  <standard_relation>  (109) 
=

>  <standard_text_value>  (109) 
nan

>  <standard_type>  (109) 
Ki

>  <standard_units>  (109) 
nM

>  <standard_upper_value>  (109) 
nan

>  <standard_value>  (109) 
3162.28

>  <target_chembl_id>  (109) 
CHEMBL4121

>  <target_organism>  (109) 
Homo sapiens

>  <target_pref_name>  (109) 
CaM kinase II beta

>  <target_tax_id>  (109) 
9606

>  <text_value>  (109) 
nan

>  <toid>  (109) 
nan

>  <type>  (109) 
pKi

>  <units>  (109) 
nan

>  <uo_units>  (109) 
UO_0000065

>  <upper_value>  (109) 
nan

>  <value>  (109) 
5.5

>  <SMILES>  (109) 
CCCC(=O)Nc1cccc(c1)c2nc(Nc3ccc4[nH]ncc4c3)c5cc(OCCN6CCCC6)ccc5n2

>  <NAME>  (109) 
CHEMBL1968705

>  <FILTER>  (109) 
OK

>  <MW>  (109) 
535.652

>  <LogP>  (109) 
6.1299

>  <HBD>  (109) 
3

>  <HBA>  (109) 
7

>  <TPSA>  (109) 
108.06

>  <Label>  (109) 
CAMK2B

$$$$
CHEMBL1966343
     RDKit          2D

 19 21  0  0  0  0  0  0  0  0999 V2000
    6.2011   -6.9341    0.0000 C   0  0  0  0  0  0  0  0  0  0  0  0
    4.8308   -6.3240    0.0000 C   0  0  0  0  0  0  0  0  0  0  0  0
    3.6172   -7.2057    0.0000 C   0  0  0  0  0  0  0  0  0  0  0  0
    4.6740   -4.8322    0.0000 C   0  0  0  0  0  0  0  0  0  0  0  0
    3.3037   -4.2221    0.0000 C   0  0  0  0  0  0  0  0  0  0  0  0
    2.9918   -2.7549    0.0000 C   0  0  0  0  0  0  0  0  0  0  0  0
    1.5000   -2.5981    0.0000 C   0  0  0  0  0  0  0  0  0  0  0  0
    0.8899   -3.9684    0.0000 O   0  0  0  0  0  0  0  0  0  0  0  0
    2.0046   -4.9721    0.0000 N   0  0  0  0  0  0  0  0  0  0  0  0
    0.7500   -1.2990    0.0000 C   0  0  0  0  0  0  0  0  0  0  0  0
    1.5000    0.0000    0.0000 C   0  0  0  0  0  0  0  0  0  0  0  0
    0.7500    1.2990    0.0000 C   0  0  0  0  0  0  0  0  0  0  0  0
   -0.7500    1.2990    0.0000 C   0  0  0  0  0  0  0  0  0  0  0  0
   -1.7537    2.4138    0.0000 N   0  0  0  0  0  0  0  0  0  0  0  0
   -3.1240    1.8037    0.0000 N   0  0  0  0  0  0  0  0  0  0  0  0
   -2.9672    0.3119    0.0000 C   0  0  0  0  0  0  0  0  0  0  0  0
   -4.0819   -0.6918    0.0000 N   0  0  0  0  0  0  0  0  0  0  0  0
   -1.5000    0.0000    0.0000 C   0  0  0  0  0  0  0  0  0  0  0  0
   -0.7500   -1.2990    0.0000 C   0  0  0  0  0  0  0  0  0  0  0  0
  1  2  1  0
  2  3  1  0
  2  4  1  0
  4  5  1  0
  5  6  1  0
  6  7  2  0
  7  8  1  0
  8  9  1  0
  7 10  1  0
 10 11  2  0
 11 12  1  0
 12 13  2  0
 13 14  1  0
 14 15  1  0
 15 16  2  0
 16 17  1  0
 16 18  1  0
 18 19  2  0
  9  5  2  0
 19 10  1  0
 18 13  1  0
M  END
>  <activity_comment>  (110) 
active

>  <activity_id>  (110) 
9626166

>  <activity_properties>  (110) 
[]

>  <assay_chembl_id>  (110) 
CHEMBL1963787

>  <assay_description>  (110) 
PUBCHEM_BIOASSAY: Navigating the Kinome. (Class of assay: other) Panel member name: CAMK2B

>  <assay_type>  (110) 
F

>  <bao_endpoint>  (110) 
BAO_0000192

>  <bao_format>  (110) 
BAO_0000019

>  <bao_label>  (110) 
assay format

>  <canonical_smiles>  (110) 
CC(C)Cc1cc(on1)c2ccc3[nH]nc(N)c3c2

>  <data_validity_comment>  (110) 
nan

>  <data_validity_description>  (110) 
nan

>  <document_chembl_id>  (110) 
CHEMBL1201862

>  <document_journal>  (110) 
nan

>  <document_year>  (110) 
nan

>  <ligand_efficiency>  (110) 
nan

>  <molecule_pref_name>  (110) 
nan

>  <parent_molecule_chembl_id>  (110) 
CHEMBL1966343

>  <pchembl_value>  (110) 
5.8

>  <potential_duplicate>  (110) 
False

>  <qudt_units>  (110) 
http://www.openphacts.org/units/Nanomolar

>  <record_id>  (110) 
1584364

>  <relation>  (110) 
=

>  <src_id>  (110) 
7

>  <standard_flag>  (110) 
True

>  <standard_relation>  (110) 
=

>  <standard_text_value>  (110) 
nan

>  <standard_type>  (110) 
Ki

>  <standard_units>  (110) 
nM

>  <standard_upper_value>  (110) 
nan

>  <standard_value>  (110) 
1584.89

>  <target_chembl_id>  (110) 
CHEMBL4121

>  <target_organism>  (110) 
Homo sapiens

>  <target_pref_name>  (110) 
CaM kinase II beta

>  <target_tax_id>  (110) 
9606

>  <text_value>  (110) 
nan

>  <toid>  (110) 
nan

>  <type>  (110) 
pKi

>  <units>  (110) 
nan

>  <uo_units>  (110) 
UO_0000065

>  <upper_value>  (110) 
nan

>  <value>  (110) 
5.8

>  <SMILES>  (110) 
CC(C)Cc1cc(on1)c2ccc3[nH]nc(N)c3c2

>  <NAME>  (110) 
CHEMBL1966343

>  <FILTER>  (110) 
OK

>  <MW>  (110) 
256.309

>  <LogP>  (110) 
2.9986

>  <HBD>  (110) 
2

>  <HBA>  (110) 
4

>  <TPSA>  (110) 
80.73

>  <Label>  (110) 
CAMK2B

$$$$
CHEMBL1967887
     RDKit          2D

 20 22  0  0  0  0  0  0  0  0999 V2000
   -2.6401   -3.1891    0.0000 C   0  0  0  0  0  0  0  0  0  0  0  0
   -1.2135   -2.7256    0.0000 C   0  0  0  0  0  0  0  0  0  0  0  0
   -0.0000   -3.6073    0.0000 N   0  0  0  0  0  0  0  0  0  0  0  0
    1.2135   -2.7256    0.0000 N   0  0  0  0  0  0  0  0  0  0  0  0
    0.7500   -1.2990    0.0000 C   0  0  0  0  0  0  0  0  0  0  0  0
    1.5000    0.0000    0.0000 C   0  0  0  0  0  0  0  0  0  0  0  0
    0.7500    1.2990    0.0000 C   0  0  0  0  0  0  0  0  0  0  0  0
   -0.7500    1.2990    0.0000 C   0  0  0  0  0  0  0  0  0  0  0  0
   -1.5000    0.0000    0.0000 C   0  0  0  0  0  0  0  0  0  0  0  0
   -0.7500   -1.2990    0.0000 C   0  0  0  0  0  0  0  0  0  0  0  0
   -1.5000    2.5981    0.0000 C   0  0  0  0  0  0  0  0  0  0  0  0
   -0.7500    3.8971    0.0000 C   0  0  0  0  0  0  0  0  0  0  0  0
   -1.5000    5.1962    0.0000 N   0  0  0  0  0  0  0  0  0  0  0  0
   -3.0000    5.1962    0.0000 C   0  0  0  0  0  0  0  0  0  0  0  0
   -3.7500    3.8971    0.0000 C   0  0  0  0  0  0  0  0  0  0  0  0
   -5.2500    3.8971    0.0000 O   0  0  0  0  0  0  0  0  0  0  0  0
   -6.0000    5.1962    0.0000 C   0  0  0  0  0  0  0  0  0  0  0  0
   -7.5000    5.1962    0.0000 C   0  0  0  0  0  0  0  0  0  0  0  0
   -8.2500    6.4952    0.0000 N   0  0  0  0  0  0  0  0  0  0  0  0
   -3.0000    2.5981    0.0000 C   0  0  0  0  0  0  0  0  0  0  0  0
  1  2  1  0
  2  3  2  0
  3  4  1  0
  4  5  1  0
  5  6  2  0
  6  7  1  0
  7  8  2  0
  8  9  1  0
  9 10  2  0
  8 11  1  0
 11 12  2  0
 12 13  1  0
 13 14  2  0
 14 15  1  0
 15 16  1  0
 16 17  1  0
 17 18  1  0
 18 19  1  0
 15 20  2  0
 10  2  1  0
 10  5  1  0
 20 11  1  0
M  END
>  <activity_comment>  (111) 
active

>  <activity_id>  (111) 
9626167

>  <activity_properties>  (111) 
[]

>  <assay_chembl_id>  (111) 
CHEMBL1963787

>  <assay_description>  (111) 
PUBCHEM_BIOASSAY: Navigating the Kinome. (Class of assay: other) Panel member name: CAMK2B

>  <assay_type>  (111) 
F

>  <bao_endpoint>  (111) 
BAO_0000192

>  <bao_format>  (111) 
BAO_0000019

>  <bao_label>  (111) 
assay format

>  <canonical_smiles>  (111) 
Cc1n[nH]c2ccc(cc12)c3cncc(OCCN)c3

>  <data_validity_comment>  (111) 
nan

>  <data_validity_description>  (111) 
nan

>  <document_chembl_id>  (111) 
CHEMBL1201862

>  <document_journal>  (111) 
nan

>  <document_year>  (111) 
nan

>  <ligand_efficiency>  (111) 
nan

>  <molecule_pref_name>  (111) 
nan

>  <parent_molecule_chembl_id>  (111) 
CHEMBL1967887

>  <pchembl_value>  (111) 
6.2

>  <potential_duplicate>  (111) 
False

>  <qudt_units>  (111) 
http://www.openphacts.org/units/Nanomolar

>  <record_id>  (111) 
1584351

>  <relation>  (111) 
=

>  <src_id>  (111) 
7

>  <standard_flag>  (111) 
True

>  <standard_relation>  (111) 
=

>  <standard_text_value>  (111) 
nan

>  <standard_type>  (111) 
Ki

>  <standard_units>  (111) 
nM

>  <standard_upper_value>  (111) 
nan

>  <standard_value>  (111) 
630.96

>  <target_chembl_id>  (111) 
CHEMBL4121

>  <target_organism>  (111) 
Homo sapiens

>  <target_pref_name>  (111) 
CaM kinase II beta

>  <target_tax_id>  (111) 
9606

>  <text_value>  (111) 
nan

>  <toid>  (111) 
nan

>  <type>  (111) 
pKi

>  <units>  (111) 
nan

>  <uo_units>  (111) 
UO_0000065

>  <upper_value>  (111) 
nan

>  <value>  (111) 
6.2

>  <SMILES>  (111) 
Cc1n[nH]c2ccc(cc12)c3cncc(OCCN)c3

>  <NAME>  (111) 
CHEMBL1967887

>  <FILTER>  (111) 
OK

>  <MW>  (111) 
268.32

>  <LogP>  (111) 
2.27082

>  <HBD>  (111) 
2

>  <HBA>  (111) 
4

>  <TPSA>  (111) 
76.82

>  <Label>  (111) 
CAMK2B

$$$$
CHEMBL1992342
     RDKit          2D

 23 25  0  0  0  0  0  0  0  0999 V2000
    0.0000  -10.3923    0.0000 C   0  0  0  0  0  0  0  0  0  0  0  0
    0.7500   -9.0933    0.0000 C   0  0  0  0  0  0  0  0  0  0  0  0
    2.2500   -9.0933    0.0000 C   0  0  0  0  0  0  0  0  0  0  0  0
    3.0000   -7.7942    0.0000 S   0  0  0  0  0  0  0  0  0  0  0  0
    1.7010   -7.0442    0.0000 O   0  0  0  0  0  0  0  0  0  0  0  0
    4.2990   -8.5442    0.0000 O   0  0  0  0  0  0  0  0  0  0  0  0
    3.7500   -6.4952    0.0000 N   0  0  0  0  0  0  0  0  0  0  0  0
    3.0000   -5.1962    0.0000 C   0  0  0  0  0  0  0  0  0  0  0  0
    1.5000   -5.1962    0.0000 C   0  0  0  0  0  0  0  0  0  0  0  0
    0.7500   -3.8971    0.0000 C   0  0  0  0  0  0  0  0  0  0  0  0
    1.5000   -2.5981    0.0000 C   0  0  0  0  0  0  0  0  0  0  0  0
    3.0000   -2.5981    0.0000 C   0  0  0  0  0  0  0  0  0  0  0  0
    3.7500   -3.8971    0.0000 C   0  0  0  0  0  0  0  0  0  0  0  0
    0.7500   -1.2990    0.0000 C   0  0  0  0  0  0  0  0  0  0  0  0
    1.5000    0.0000    0.0000 C   0  0  0  0  0  0  0  0  0  0  0  0
    0.7500    1.2990    0.0000 C   0  0  0  0  0  0  0  0  0  0  0  0
   -0.7500    1.2990    0.0000 C   0  0  0  0  0  0  0  0  0  0  0  0
   -1.7537    2.4138    0.0000 N   0  0  0  0  0  0  0  0  0  0  0  0
   -3.1240    1.8037    0.0000 N   0  0  0  0  0  0  0  0  0  0  0  0
   -2.9672    0.3119    0.0000 C   0  0  0  0  0  0  0  0  0  0  0  0
   -4.0819   -0.6918    0.0000 N   0  0  0  0  0  0  0  0  0  0  0  0
   -1.5000    0.0000    0.0000 C   0  0  0  0  0  0  0  0  0  0  0  0
   -0.7500   -1.2990    0.0000 C   0  0  0  0  0  0  0  0  0  0  0  0
  1  2  1  0
  2  3  1  0
  3  4  1  0
  4  5  2  0
  4  6  2  0
  4  7  1  0
  7  8  1  0
  8  9  2  0
  9 10  1  0
 10 11  2  0
 11 12  1  0
 12 13  2  0
 11 14  1  0
 14 15  2  0
 15 16  1  0
 16 17  2  0
 17 18  1  0
 18 19  1  0
 19 20  2  0
 20 21  1  0
 20 22  1  0
 22 23  2  0
 13  8  1  0
 23 14  1  0
 22 17  1  0
M  END
>  <activity_comment>  (112) 
active

>  <activity_id>  (112) 
9626181

>  <activity_properties>  (112) 
[]

>  <assay_chembl_id>  (112) 
CHEMBL1963787

>  <assay_description>  (112) 
PUBCHEM_BIOASSAY: Navigating the Kinome. (Class of assay: other) Panel member name: CAMK2B

>  <assay_type>  (112) 
F

>  <bao_endpoint>  (112) 
BAO_0000192

>  <bao_format>  (112) 
BAO_0000019

>  <bao_label>  (112) 
assay format

>  <canonical_smiles>  (112) 
CCCS(=O)(=O)Nc1ccc(cc1)c2ccc3[nH]nc(N)c3c2

>  <data_validity_comment>  (112) 
nan

>  <data_validity_description>  (112) 
nan

>  <document_chembl_id>  (112) 
CHEMBL1201862

>  <document_journal>  (112) 
nan

>  <document_year>  (112) 
nan

>  <ligand_efficiency>  (112) 
nan

>  <molecule_pref_name>  (112) 
nan

>  <parent_molecule_chembl_id>  (112) 
CHEMBL1992342

>  <pchembl_value>  (112) 
5.2

>  <potential_duplicate>  (112) 
False

>  <qudt_units>  (112) 
http://www.openphacts.org/units/Nanomolar

>  <record_id>  (112) 
1584354

>  <relation>  (112) 
=

>  <src_id>  (112) 
7

>  <standard_flag>  (112) 
True

>  <standard_relation>  (112) 
=

>  <standard_text_value>  (112) 
nan

>  <standard_type>  (112) 
Ki

>  <standard_units>  (112) 
nM

>  <standard_upper_value>  (112) 
nan

>  <standard_value>  (112) 
6309.57

>  <target_chembl_id>  (112) 
CHEMBL4121

>  <target_organism>  (112) 
Homo sapiens

>  <target_pref_name>  (112) 
CaM kinase II beta

>  <target_tax_id>  (112) 
9606

>  <text_value>  (112) 
nan

>  <toid>  (112) 
nan

>  <type>  (112) 
pKi

>  <units>  (112) 
nan

>  <uo_units>  (112) 
UO_0000065

>  <upper_value>  (112) 
nan

>  <value>  (112) 
5.2

>  <SMILES>  (112) 
CCCS(=O)(=O)Nc1ccc(cc1)c2ccc3[nH]nc(N)c3c2

>  <NAME>  (112) 
CHEMBL1992342

>  <FILTER>  (112) 
OK

>  <MW>  (112) 
330.413

>  <LogP>  (112) 
2.9638

>  <HBD>  (112) 
3

>  <HBA>  (112) 
4

>  <TPSA>  (112) 
100.87

>  <Label>  (112) 
CAMK2B

$$$$
CHEMBL1988173
     RDKit          2D

 29 31  0  0  0  0  0  0  0  0999 V2000
    3.0000    0.0000    0.0000 C   0  0  0  0  0  0  0  0  0  0  0  0
    1.5000    0.0000    0.0000 C   0  0  0  0  0  0  0  0  0  0  0  0
    0.7500   -1.2990    0.0000 C   0  0  0  0  0  0  0  0  0  0  0  0
   -0.7500   -1.2990    0.0000 C   0  0  0  0  0  0  0  0  0  0  0  0
   -1.5000   -2.5981    0.0000 Cl  0  0  0  0  0  0  0  0  0  0  0  0
   -1.5000    0.0000    0.0000 C   0  0  0  0  0  0  0  0  0  0  0  0
   -0.7500    1.2990    0.0000 C   0  0  0  0  0  0  0  0  0  0  0  0
    0.7500    1.2990    0.0000 C   0  0  0  0  0  0  0  0  0  0  0  0
    1.5000    2.5981    0.0000 N   0  0  0  0  0  0  0  0  0  0  0  0
    0.7500    3.8971    0.0000 C   0  0  0  0  0  0  0  0  0  0  0  0
   -0.7500    3.8971    0.0000 S   0  0  0  0  0  0  0  0  0  0  0  0
    1.5000    5.1962    0.0000 N   0  0  0  0  0  0  0  0  0  0  0  0
    0.7500    6.4952    0.0000 N   0  0  0  0  0  0  0  0  0  0  0  0
    1.5000    7.7942    0.0000 C   0  0  0  0  0  0  0  0  0  0  0  0
    3.0000    7.7942    0.0000 O   0  0  0  0  0  0  0  0  0  0  0  0
    0.7500    9.0933    0.0000 C   0  0  0  0  0  0  0  0  0  0  0  0
    0.0000   10.3923    0.0000 O   0  0  0  0  0  0  0  0  0  0  0  0
   -0.5490    8.3433    0.0000 C   0  0  0  0  0  0  0  0  0  0  0  0
   -1.8481    9.0933    0.0000 C   0  0  0  0  0  0  0  0  0  0  0  0
   -3.1471    8.3433    0.0000 C   0  0  0  0  0  0  0  0  0  0  0  0
   -3.1471    6.8433    0.0000 C   0  0  0  0  0  0  0  0  0  0  0  0
   -1.8481    6.0933    0.0000 C   0  0  0  0  0  0  0  0  0  0  0  0
   -0.5490    6.8433    0.0000 C   0  0  0  0  0  0  0  0  0  0  0  0
    2.0490    9.8433    0.0000 C   0  0  0  0  0  0  0  0  0  0  0  0
    3.3481    9.0933    0.0000 C   0  0  0  0  0  0  0  0  0  0  0  0
    4.6471    9.8433    0.0000 C   0  0  0  0  0  0  0  0  0  0  0  0
    4.6471   11.3433    0.0000 C   0  0  0  0  0  0  0  0  0  0  0  0
    3.3481   12.0933    0.0000 C   0  0  0  0  0  0  0  0  0  0  0  0
    2.0490   11.3433    0.0000 C   0  0  0  0  0  0  0  0  0  0  0  0
  1  2  1  0
  2  3  2  0
  3  4  1  0
  4  5  1  0
  4  6  2  0
  6  7  1  0
  7  8  2  0
  8  9  1  0
  9 10  1  0
 10 11  2  0
 10 12  1  0
 12 13  1  0
 13 14  1  0
 14 15  2  0
 14 16  1  0
 16 17  1  0
 16 18  1  0
 18 19  2  0
 19 20  1  0
 20 21  2  0
 21 22  1  0
 22 23  2  0
 16 24  1  0
 24 25  2  0
 25 26  1  0
 26 27  2  0
 27 28  1  0
 28 29  2  0
  8  2  1  0
 23 18  1  0
 29 24  1  0
M  END
>  <activity_comment>  (113) 
active

>  <activity_id>  (113) 
9626182

>  <activity_properties>  (113) 
[]

>  <assay_chembl_id>  (113) 
CHEMBL1963787

>  <assay_description>  (113) 
PUBCHEM_BIOASSAY: Navigating the Kinome. (Class of assay: other) Panel member name: CAMK2B

>  <assay_type>  (113) 
F

>  <bao_endpoint>  (113) 
BAO_0000192

>  <bao_format>  (113) 
BAO_0000019

>  <bao_label>  (113) 
assay format

>  <canonical_smiles>  (113) 
Cc1cc(Cl)ccc1NC(=S)NNC(=O)C(O)(c2ccccc2)c3ccccc3

>  <data_validity_comment>  (113) 
nan

>  <data_validity_description>  (113) 
nan

>  <document_chembl_id>  (113) 
CHEMBL1201862

>  <document_journal>  (113) 
nan

>  <document_year>  (113) 
nan

>  <ligand_efficiency>  (113) 
nan

>  <molecule_pref_name>  (113) 
nan

>  <parent_molecule_chembl_id>  (113) 
CHEMBL1988173

>  <pchembl_value>  (113) 
5.8

>  <potential_duplicate>  (113) 
False

>  <qudt_units>  (113) 
http://www.openphacts.org/units/Nanomolar

>  <record_id>  (113) 
1584330

>  <relation>  (113) 
=

>  <src_id>  (113) 
7

>  <standard_flag>  (113) 
True

>  <standard_relation>  (113) 
=

>  <standard_text_value>  (113) 
nan

>  <standard_type>  (113) 
Ki

>  <standard_units>  (113) 
nM

>  <standard_upper_value>  (113) 
nan

>  <standard_value>  (113) 
1584.89

>  <target_chembl_id>  (113) 
CHEMBL4121

>  <target_organism>  (113) 
Homo sapiens

>  <target_pref_name>  (113) 
CaM kinase II beta

>  <target_tax_id>  (113) 
9606

>  <text_value>  (113) 
nan

>  <toid>  (113) 
nan

>  <type>  (113) 
pKi

>  <units>  (113) 
nan

>  <uo_units>  (113) 
UO_0000065

>  <upper_value>  (113) 
nan

>  <value>  (113) 
5.8

>  <SMILES>  (113) 
Cc1cc(Cl)ccc1NC(=S)NNC(=O)C(O)(c2ccccc2)c3ccccc3

>  <NAME>  (113) 
CHEMBL1988173

>  <FILTER>  (113) 
OK

>  <MW>  (113) 
425.941

>  <LogP>  (113) 
3.90212

>  <HBD>  (113) 
4

>  <HBA>  (113) 
3

>  <TPSA>  (113) 
73.39

>  <Label>  (113) 
CAMK2B

$$$$
CHEMBL1965423
     RDKit          2D

 29 33  0  0  0  0  0  0  0  0999 V2000
   -5.1814   -2.6490    0.0000 C   0  0  0  0  0  0  0  0  0  0  0  0
   -3.7548   -2.1855    0.0000 C   0  0  0  0  0  0  0  0  0  0  0  0
   -3.4430   -0.7182    0.0000 C   0  0  0  0  0  0  0  0  0  0  0  0
   -2.6401   -3.1891    0.0000 C   0  0  0  0  0  0  0  0  0  0  0  0
   -1.2135   -2.7256    0.0000 N   0  0  0  0  0  0  0  0  0  0  0  0
   -0.0000   -3.6073    0.0000 C   0  0  0  0  0  0  0  0  0  0  0  0
   -0.0000   -5.1073    0.0000 N   0  0  0  0  0  0  0  0  0  0  0  0
    1.2135   -2.7256    0.0000 N   0  0  0  0  0  0  0  0  0  0  0  0
    0.7500   -1.2990    0.0000 C   0  0  0  0  0  0  0  0  0  0  0  0
    1.5000    0.0000    0.0000 C   0  0  0  0  0  0  0  0  0  0  0  0
    0.7500    1.2990    0.0000 C   0  0  0  0  0  0  0  0  0  0  0  0
   -0.7500    1.2990    0.0000 C   0  0  0  0  0  0  0  0  0  0  0  0
   -1.5000    0.0000    0.0000 C   0  0  0  0  0  0  0  0  0  0  0  0
   -0.7500   -1.2990    0.0000 C   0  0  0  0  0  0  0  0  0  0  0  0
   -1.5000    2.5981    0.0000 C   0  0  0  0  0  0  0  0  0  0  0  0
   -2.9918    2.7549    0.0000 C   0  0  0  0  0  0  0  0  0  0  0  0
   -3.3037    4.2221    0.0000 N   0  0  0  0  0  0  0  0  0  0  0  0
   -2.0046    4.9721    0.0000 C   0  0  0  0  0  0  0  0  0  0  0  0
   -1.3945    6.3424    0.0000 S   0  0  0  0  0  0  0  0  0  0  0  0
    0.0973    6.1856    0.0000 C   0  0  0  0  0  0  0  0  0  0  0  0
    0.4091    4.7184    0.0000 C   0  0  0  0  0  0  0  0  0  0  0  0
   -0.8899    3.9684    0.0000 N   0  0  0  0  0  0  0  0  0  0  0  0
   -3.9955    1.6402    0.0000 C   0  0  0  0  0  0  0  0  0  0  0  0
   -5.4627    1.9520    0.0000 C   0  0  0  0  0  0  0  0  0  0  0  0
   -6.4664    0.8373    0.0000 C   0  0  0  0  0  0  0  0  0  0  0  0
   -6.0029   -0.5893    0.0000 C   0  0  0  0  0  0  0  0  0  0  0  0
   -7.0066   -1.7040    0.0000 F   0  0  0  0  0  0  0  0  0  0  0  0
   -4.5356   -0.9012    0.0000 C   0  0  0  0  0  0  0  0  0  0  0  0
   -3.5320    0.2136    0.0000 C   0  0  0  0  0  0  0  0  0  0  0  0
  1  2  1  0
  2  3  1  0
  2  4  1  0
  4  5  1  0
  5  6  1  0
  6  7  1  0
  6  8  2  0
  8  9  1  0
  9 10  2  0
 10 11  1  0
 11 12  2  0
 12 13  1  0
 13 14  2  0
 12 15  1  0
 15 16  2  0
 16 17  1  0
 17 18  2  0
 18 19  1  0
 19 20  1  0
 20 21  2  0
 21 22  1  0
 16 23  1  0
 23 24  2  0
 24 25  1  0
 25 26  2  0
 26 27  1  0
 26 28  1  0
 28 29  2  0
 14  5  1  0
 14  9  1  0
 22 15  1  0
 22 18  1  0
 29 23  1  0
M  END
>  <activity_comment>  (114) 
active

>  <activity_id>  (114) 
9626185

>  <activity_properties>  (114) 
[]

>  <assay_chembl_id>  (114) 
CHEMBL1963787

>  <assay_description>  (114) 
PUBCHEM_BIOASSAY: Navigating the Kinome. (Class of assay: other) Panel member name: CAMK2B

>  <assay_type>  (114) 
F

>  <bao_endpoint>  (114) 
BAO_0000192

>  <bao_format>  (114) 
BAO_0000019

>  <bao_label>  (114) 
assay format

>  <canonical_smiles>  (114) 
CC(C)Cn1c(N)nc2ccc(cc12)c3c(nc4sccn34)c5ccc(F)cc5

>  <data_validity_comment>  (114) 
nan

>  <data_validity_description>  (114) 
nan

>  <document_chembl_id>  (114) 
CHEMBL1201862

>  <document_journal>  (114) 
nan

>  <document_year>  (114) 
nan

>  <ligand_efficiency>  (114) 
nan

>  <molecule_pref_name>  (114) 
nan

>  <parent_molecule_chembl_id>  (114) 
CHEMBL1965423

>  <pchembl_value>  (114) 
5.3

>  <potential_duplicate>  (114) 
False

>  <qudt_units>  (114) 
http://www.openphacts.org/units/Nanomolar

>  <record_id>  (114) 
1584944

>  <relation>  (114) 
=

>  <src_id>  (114) 
7

>  <standard_flag>  (114) 
True

>  <standard_relation>  (114) 
=

>  <standard_text_value>  (114) 
nan

>  <standard_type>  (114) 
Ki

>  <standard_units>  (114) 
nM

>  <standard_upper_value>  (114) 
nan

>  <standard_value>  (114) 
5011.87

>  <target_chembl_id>  (114) 
CHEMBL4121

>  <target_organism>  (114) 
Homo sapiens

>  <target_pref_name>  (114) 
CaM kinase II beta

>  <target_tax_id>  (114) 
9606

>  <text_value>  (114) 
nan

>  <toid>  (114) 
nan

>  <type>  (114) 
pKi

>  <units>  (114) 
nan

>  <uo_units>  (114) 
UO_0000065

>  <upper_value>  (114) 
nan

>  <value>  (114) 
5.3

>  <SMILES>  (114) 
CC(C)Cn1c(N)nc2ccc(cc12)c3c(nc4sccn34)c5ccc(F)cc5

>  <NAME>  (114) 
CHEMBL1965423

>  <FILTER>  (114) 
OK

>  <MW>  (114) 
405.502

>  <LogP>  (114) 
5.4568

>  <HBD>  (114) 
1

>  <HBA>  (114) 
6

>  <TPSA>  (114) 
61.14

>  <Label>  (114) 
CAMK2B

$$$$
CHEMBL1982980
     RDKit          2D

 29 31  0  0  0  0  0  0  0  0999 V2000
    5.2500    1.2990    0.0000 C   0  0  0  0  0  0  0  0  0  0  0  0
    3.7500    1.2990    0.0000 C   0  0  0  0  0  0  0  0  0  0  0  0
    3.0000    0.0000    0.0000 C   0  0  0  0  0  0  0  0  0  0  0  0
    3.7500   -1.2990    0.0000 C   0  0  0  0  0  0  0  0  0  0  0  0
    1.5000    0.0000    0.0000 C   0  0  0  0  0  0  0  0  0  0  0  0
    0.7500   -1.2990    0.0000 C   0  0  0  0  0  0  0  0  0  0  0  0
   -0.7500   -1.2990    0.0000 C   0  0  0  0  0  0  0  0  0  0  0  0
   -1.5000    0.0000    0.0000 C   0  0  0  0  0  0  0  0  0  0  0  0
   -0.7500    1.2990    0.0000 C   0  0  0  0  0  0  0  0  0  0  0  0
   -1.2135    2.7256    0.0000 C   0  0  0  0  0  0  0  0  0  0  0  0
   -2.6401    3.1891    0.0000 C   0  0  0  0  0  0  0  0  0  0  0  0
   -2.9520    4.6564    0.0000 C   0  0  0  0  0  0  0  0  0  0  0  0
   -4.3786    5.1199    0.0000 C   0  0  0  0  0  0  0  0  0  0  0  0
   -4.6904    6.5871    0.0000 O   0  0  0  0  0  0  0  0  0  0  0  0
   -6.1170    7.0506    0.0000 C   0  0  0  0  0  0  0  0  0  0  0  0
   -6.4289    8.5179    0.0000 C   0  0  0  0  0  0  0  0  0  0  0  0
   -7.8555    8.9814    0.0000 C   0  0  0  0  0  0  0  0  0  0  0  0
   -8.9702    7.9777    0.0000 C   0  0  0  0  0  0  0  0  0  0  0  0
   -8.6583    6.5105    0.0000 C   0  0  0  0  0  0  0  0  0  0  0  0
   -9.7730    5.5068    0.0000 Cl  0  0  0  0  0  0  0  0  0  0  0  0
   -7.2317    6.0469    0.0000 C   0  0  0  0  0  0  0  0  0  0  0  0
   -6.9199    4.5797    0.0000 Cl  0  0  0  0  0  0  0  0  0  0  0  0
    0.0000    3.6073    0.0000 C   0  0  0  0  0  0  0  0  0  0  0  0
    1.2135    2.7256    0.0000 N   0  0  0  0  0  0  0  0  0  0  0  0
    0.7500    1.2990    0.0000 C   0  0  0  0  0  0  0  0  0  0  0  0
    0.0000    5.1073    0.0000 C   0  0  0  0  0  0  0  0  0  0  0  0
   -1.2990    5.8573    0.0000 O   0  0  0  0  0  0  0  0  0  0  0  0
    1.2990    5.8573    0.0000 O   0  0  0  0  0  0  0  0  0  0  0  0
    3.0000    2.5981    0.0000 C   0  0  0  0  0  0  0  0  0  0  0  0
  1  2  1  0
  2  3  2  3
  3  4  1  0
  3  5  1  0
  5  6  2  0
  6  7  1  0
  7  8  2  0
  8  9  1  0
  9 10  1  0
 10 11  1  0
 11 12  1  0
 12 13  1  0
 13 14  1  0
 14 15  1  0
 15 16  2  0
 16 17  1  0
 17 18  2  0
 18 19  1  0
 19 20  1  0
 19 21  2  0
 21 22  1  0
 10 23  2  0
 23 24  1  0
 24 25  1  0
 23 26  1  0
 26 27  2  0
 26 28  1  0
  2 29  1  0
 25  5  1  0
 25  9  2  0
 21 15  1  0
M  END
>  <activity_comment>  (115) 
active

>  <activity_id>  (115) 
9626186

>  <activity_properties>  (115) 
[]

>  <assay_chembl_id>  (115) 
CHEMBL1963787

>  <assay_description>  (115) 
PUBCHEM_BIOASSAY: Navigating the Kinome. (Class of assay: other) Panel member name: CAMK2B

>  <assay_type>  (115) 
F

>  <bao_endpoint>  (115) 
BAO_0000192

>  <bao_format>  (115) 
BAO_0000019

>  <bao_label>  (115) 
assay format

>  <canonical_smiles>  (115) 
CC(=C(C)c1cccc2c(CCCOc3cccc(Cl)c3Cl)c([nH]c12)C(=O)O)C

>  <data_validity_comment>  (115) 
nan

>  <data_validity_description>  (115) 
nan

>  <document_chembl_id>  (115) 
CHEMBL1201862

>  <document_journal>  (115) 
nan

>  <document_year>  (115) 
nan

>  <ligand_efficiency>  (115) 
nan

>  <molecule_pref_name>  (115) 
nan

>  <parent_molecule_chembl_id>  (115) 
CHEMBL1982980

>  <pchembl_value>  (115) 
5.7

>  <potential_duplicate>  (115) 
False

>  <qudt_units>  (115) 
http://www.openphacts.org/units/Nanomolar

>  <record_id>  (115) 
1585054

>  <relation>  (115) 
=

>  <src_id>  (115) 
7

>  <standard_flag>  (115) 
True

>  <standard_relation>  (115) 
=

>  <standard_text_value>  (115) 
nan

>  <standard_type>  (115) 
Ki

>  <standard_units>  (115) 
nM

>  <standard_upper_value>  (115) 
nan

>  <standard_value>  (115) 
1995.26

>  <target_chembl_id>  (115) 
CHEMBL4121

>  <target_organism>  (115) 
Homo sapiens

>  <target_pref_name>  (115) 
CaM kinase II beta

>  <target_tax_id>  (115) 
9606

>  <text_value>  (115) 
nan

>  <toid>  (115) 
nan

>  <type>  (115) 
pKi

>  <units>  (115) 
nan

>  <uo_units>  (115) 
UO_0000065

>  <upper_value>  (115) 
nan

>  <value>  (115) 
5.7

>  <SMILES>  (115) 
CC(=C(C)c1cccc2c(CCCOc3cccc(Cl)c3Cl)c([nH]c12)C(=O)O)C

>  <NAME>  (115) 
CHEMBL1982980

>  <FILTER>  (115) 
OK

>  <MW>  (115) 
432.347

>  <LogP>  (115) 
6.9978

>  <HBD>  (115) 
2

>  <HBA>  (115) 
2

>  <TPSA>  (115) 
62.32

>  <Label>  (115) 
CAMK2B

$$$$
CHEMBL1983025
     RDKit          2D

 35 38  0  0  0  0  0  0  0  0999 V2000
   -0.0813   -7.2990    0.0000 C   0  0  0  0  0  0  0  0  0  0  0  0
   -0.8313   -6.0000    0.0000 C   0  0  0  0  0  0  0  0  0  0  0  0
   -2.3313   -6.0000    0.0000 C   0  0  0  0  0  0  0  0  0  0  0  0
   -2.3313   -7.5000    0.0000 N   0  0  0  0  0  0  0  0  0  0  0  0
   -3.8313   -6.0000    0.0000 C   0  0  0  0  0  0  0  0  0  0  0  0
   -4.5813   -7.2990    0.0000 C   0  0  0  0  0  0  0  0  0  0  0  0
   -2.3313   -4.5000    0.0000 C   0  0  0  0  0  0  0  0  0  0  0  0
   -2.3313   -3.0000    0.0000 C   0  0  0  0  0  0  0  0  0  0  0  0
   -2.3313   -1.5000    0.0000 C   0  0  0  0  0  0  0  0  0  0  0  0
   -3.6304   -0.7500    0.0000 C   0  0  0  0  0  0  0  0  0  0  0  0
   -3.6304    0.7500    0.0000 N   0  0  0  0  0  0  0  0  0  0  0  0
   -2.3313    1.5000    0.0000 C   0  0  0  0  0  0  0  0  0  0  0  0
   -2.3313    3.0000    0.0000 N   0  0  0  0  0  0  0  0  0  0  0  0
   -1.0323    0.7500    0.0000 C   0  0  0  0  0  0  0  0  0  0  0  0
    0.3943    1.2135    0.0000 C   0  0  0  0  0  0  0  0  0  0  0  0
    1.2760    0.0000    0.0000 C   0  0  0  0  0  0  0  0  0  0  0  0
    0.3943   -1.2135    0.0000 S   0  0  0  0  0  0  0  0  0  0  0  0
   -1.0323   -0.7500    0.0000 C   0  0  0  0  0  0  0  0  0  0  0  0
    0.8578    2.6401    0.0000 C   0  0  0  0  0  0  0  0  0  0  0  0
    2.3250    2.9520    0.0000 C   0  0  0  0  0  0  0  0  0  0  0  0
    2.7886    4.3786    0.0000 C   0  0  0  0  0  0  0  0  0  0  0  0
    1.7849    5.4933    0.0000 C   0  0  0  0  0  0  0  0  0  0  0  0
    2.2484    6.9199    0.0000 N   0  0  0  0  0  0  0  0  0  0  0  0
    3.7156    7.2317    0.0000 C   0  0  0  0  0  0  0  0  0  0  0  0
    4.7193    6.1170    0.0000 O   0  0  0  0  0  0  0  0  0  0  0  0
    4.1791    8.6583    0.0000 N   0  0  0  0  0  0  0  0  0  0  0  0
    5.6464    8.9702    0.0000 C   0  0  0  0  0  0  0  0  0  0  0  0
    6.6501    7.8555    0.0000 C   0  0  0  0  0  0  0  0  0  0  0  0
    8.1173    8.1673    0.0000 C   0  0  0  0  0  0  0  0  0  0  0  0
    8.5808    9.5939    0.0000 C   0  0  0  0  0  0  0  0  0  0  0  0
    7.5771   10.7086    0.0000 C   0  0  0  0  0  0  0  0  0  0  0  0
    8.0406   12.1352    0.0000 C   0  0  0  0  0  0  0  0  0  0  0  0
    6.1099   10.3968    0.0000 C   0  0  0  0  0  0  0  0  0  0  0  0
    0.3177    5.1814    0.0000 C   0  0  0  0  0  0  0  0  0  0  0  0
   -0.1459    3.7548    0.0000 C   0  0  0  0  0  0  0  0  0  0  0  0
  1  2  1  0
  2  3  1  0
  3  4  1  0
  3  5  1  0
  5  6  1  0
  3  7  1  0
  7  8  3  0
  8  9  1  0
  9 10  2  0
 10 11  1  0
 11 12  2  0
 12 13  1  0
 12 14  1  0
 14 15  1  0
 15 16  2  0
 16 17  1  0
 17 18  1  0
 15 19  1  0
 19 20  2  0
 20 21  1  0
 21 22  2  0
 22 23  1  0
 23 24  1  0
 24 25  2  0
 24 26  1  0
 26 27  1  0
 27 28  2  0
 28 29  1  0
 29 30  2  0
 30 31  1  0
 31 32  1  0
 31 33  2  0
 22 34  1  0
 34 35  2  0
 18  9  1  0
 18 14  2  0
 35 19  1  0
 33 27  1  0
M  END
>  <activity_comment>  (116) 
active

>  <activity_id>  (116) 
9626187

>  <activity_properties>  (116) 
[]

>  <assay_chembl_id>  (116) 
CHEMBL1963787

>  <assay_description>  (116) 
PUBCHEM_BIOASSAY: Navigating the Kinome. (Class of assay: other) Panel member name: CAMK2B

>  <assay_type>  (116) 
F

>  <bao_endpoint>  (116) 
BAO_0000192

>  <bao_format>  (116) 
BAO_0000019

>  <bao_label>  (116) 
assay format

>  <canonical_smiles>  (116) 
CCC(N)(CC)C#Cc1cnc(N)c2c(csc12)c3ccc(NC(=O)Nc4cccc(C)c4)cc3

>  <data_validity_comment>  (116) 
nan

>  <data_validity_description>  (116) 
nan

>  <document_chembl_id>  (116) 
CHEMBL1201862

>  <document_journal>  (116) 
nan

>  <document_year>  (116) 
nan

>  <ligand_efficiency>  (116) 
nan

>  <molecule_pref_name>  (116) 
nan

>  <parent_molecule_chembl_id>  (116) 
CHEMBL1983025

>  <pchembl_value>  (116) 
5.4

>  <potential_duplicate>  (116) 
False

>  <qudt_units>  (116) 
http://www.openphacts.org/units/Nanomolar

>  <record_id>  (116) 
1584184

>  <relation>  (116) 
=

>  <src_id>  (116) 
7

>  <standard_flag>  (116) 
True

>  <standard_relation>  (116) 
=

>  <standard_text_value>  (116) 
nan

>  <standard_type>  (116) 
Ki

>  <standard_units>  (116) 
nM

>  <standard_upper_value>  (116) 
nan

>  <standard_value>  (116) 
3981.07

>  <target_chembl_id>  (116) 
CHEMBL4121

>  <target_organism>  (116) 
Homo sapiens

>  <target_pref_name>  (116) 
CaM kinase II beta

>  <target_tax_id>  (116) 
9606

>  <text_value>  (116) 
nan

>  <toid>  (116) 
nan

>  <type>  (116) 
pKi

>  <units>  (116) 
nan

>  <uo_units>  (116) 
UO_0000065

>  <upper_value>  (116) 
nan

>  <value>  (116) 
5.4

>  <SMILES>  (116) 
CCC(N)(CC)C#Cc1cnc(N)c2c(csc12)c3ccc(NC(=O)Nc4cccc(C)c4)cc3

>  <NAME>  (116) 
CHEMBL1983025

>  <FILTER>  (116) 
OK

>  <MW>  (116) 
483.641

>  <LogP>  (116) 
6.36692

>  <HBD>  (116) 
4

>  <HBA>  (116) 
5

>  <TPSA>  (116) 
106.06

>  <Label>  (116) 
CAMK2B

$$$$
CHEMBL1978448
     RDKit          2D

 23 26  0  0  0  0  0  0  0  0999 V2000
   -6.6059    5.7685    0.0000 C   0  0  0  0  0  0  0  0  0  0  0  0
   -6.9177    4.3013    0.0000 S   0  0  0  0  0  0  0  0  0  0  0  0
   -5.4505    3.9894    0.0000 O   0  0  0  0  0  0  0  0  0  0  0  0
   -8.3850    4.6131    0.0000 O   0  0  0  0  0  0  0  0  0  0  0  0
   -7.2296    2.8340    0.0000 N   0  0  0  0  0  0  0  0  0  0  0  0
   -6.1149    1.8303    0.0000 C   0  0  0  0  0  0  0  0  0  0  0  0
   -4.6883    2.2939    0.0000 C   0  0  0  0  0  0  0  0  0  0  0  0
   -4.3764    3.7611    0.0000 C   0  0  0  0  0  0  0  0  0  0  0  0
   -2.9499    4.2246    0.0000 C   0  0  0  0  0  0  0  0  0  0  0  0
   -1.8351    3.2209    0.0000 C   0  0  0  0  0  0  0  0  0  0  0  0
   -0.4086    3.6844    0.0000 N   0  0  0  0  0  0  0  0  0  0  0  0
    0.7062    2.6807    0.0000 C   0  0  0  0  0  0  0  0  0  0  0  0
    2.1328    3.1443    0.0000 O   0  0  0  0  0  0  0  0  0  0  0  0
    0.3943    1.2135    0.0000 C   0  0  0  0  0  0  0  0  0  0  0  0
    1.2760    0.0000    0.0000 C   0  0  0  0  0  0  0  0  0  0  0  0
    0.3943   -1.2135    0.0000 C   0  0  0  0  0  0  0  0  0  0  0  0
   -1.0323   -0.7500    0.0000 C   0  0  0  0  0  0  0  0  0  0  0  0
   -1.0323    0.7500    0.0000 N   0  0  0  0  0  0  0  0  0  0  0  0
   -2.1470    1.7537    0.0000 C   0  0  0  0  0  0  0  0  0  0  0  0
   -3.5736    1.2902    0.0000 C   0  0  0  0  0  0  0  0  0  0  0  0
   -8.6562    2.3705    0.0000 C   0  0  0  0  0  0  0  0  0  0  0  0
   -9.6599    1.2558    0.0000 C   0  0  0  0  0  0  0  0  0  0  0  0
  -10.1234    2.6824    0.0000 C   0  0  0  0  0  0  0  0  0  0  0  0
  1  2  1  0
  2  3  2  0
  2  4  2  0
  2  5  1  0
  5  6  1  0
  6  7  1  0
  7  8  2  0
  8  9  1  0
  9 10  2  0
 10 11  1  0
 11 12  1  0
 12 13  2  0
 12 14  1  0
 14 15  2  0
 15 16  1  0
 16 17  2  0
 17 18  1  0
 18 19  1  0
 19 20  2  0
  5 21  1  0
 21 22  1  0
 22 23  1  0
 20  7  1  0
 19 10  1  0
 18 14  1  0
 23 21  1  0
M  END
>  <activity_comment>  (117) 
active

>  <activity_id>  (117) 
9626191

>  <activity_properties>  (117) 
[]

>  <assay_chembl_id>  (117) 
CHEMBL1963787

>  <assay_description>  (117) 
PUBCHEM_BIOASSAY: Navigating the Kinome. (Class of assay: other) Panel member name: CAMK2B

>  <assay_type>  (117) 
F

>  <bao_endpoint>  (117) 
BAO_0000192

>  <bao_format>  (117) 
BAO_0000019

>  <bao_label>  (117) 
assay format

>  <canonical_smiles>  (117) 
CS(=O)(=O)N(Cc1ccc2NC(=O)c3cccn3c2c1)C4CC4

>  <data_validity_comment>  (117) 
nan

>  <data_validity_description>  (117) 
nan

>  <document_chembl_id>  (117) 
CHEMBL1201862

>  <document_journal>  (117) 
nan

>  <document_year>  (117) 
nan

>  <ligand_efficiency>  (117) 
nan

>  <molecule_pref_name>  (117) 
nan

>  <parent_molecule_chembl_id>  (117) 
CHEMBL1978448

>  <pchembl_value>  (117) 
5.8

>  <potential_duplicate>  (117) 
False

>  <qudt_units>  (117) 
http://www.openphacts.org/units/Nanomolar

>  <record_id>  (117) 
1584794

>  <relation>  (117) 
=

>  <src_id>  (117) 
7

>  <standard_flag>  (117) 
True

>  <standard_relation>  (117) 
=

>  <standard_text_value>  (117) 
nan

>  <standard_type>  (117) 
Ki

>  <standard_units>  (117) 
nM

>  <standard_upper_value>  (117) 
nan

>  <standard_value>  (117) 
1584.89

>  <target_chembl_id>  (117) 
CHEMBL4121

>  <target_organism>  (117) 
Homo sapiens

>  <target_pref_name>  (117) 
CaM kinase II beta

>  <target_tax_id>  (117) 
9606

>  <text_value>  (117) 
nan

>  <toid>  (117) 
nan

>  <type>  (117) 
pKi

>  <units>  (117) 
nan

>  <uo_units>  (117) 
UO_0000065

>  <upper_value>  (117) 
nan

>  <value>  (117) 
5.8

>  <SMILES>  (117) 
CS(=O)(=O)N(Cc1ccc2NC(=O)c3cccn3c2c1)C4CC4

>  <NAME>  (117) 
CHEMBL1978448

>  <FILTER>  (117) 
OK

>  <MW>  (117) 
331.397

>  <LogP>  (117) 
1.7048

>  <HBD>  (117) 
1

>  <HBA>  (117) 
4

>  <TPSA>  (117) 
74.65

>  <Label>  (117) 
CAMK2B

$$$$
CHEMBL2001257
     RDKit          2D

 35 38  0  0  0  0  0  0  0  0999 V2000
   -4.9294   -9.0000    0.0000 C   0  0  0  0  0  0  0  0  0  0  0  0
   -3.6304   -8.2500    0.0000 C   0  0  0  0  0  0  0  0  0  0  0  0
   -3.6304   -6.7500    0.0000 N   0  0  0  0  0  0  0  0  0  0  0  0
   -4.9294   -6.0000    0.0000 C   0  0  0  0  0  0  0  0  0  0  0  0
   -6.2284   -6.7500    0.0000 C   0  0  0  0  0  0  0  0  0  0  0  0
   -2.3313   -6.0000    0.0000 C   0  0  0  0  0  0  0  0  0  0  0  0
   -2.3313   -4.5000    0.0000 C   0  0  0  0  0  0  0  0  0  0  0  0
   -2.3313   -3.0000    0.0000 C   0  0  0  0  0  0  0  0  0  0  0  0
   -2.3313   -1.5000    0.0000 C   0  0  0  0  0  0  0  0  0  0  0  0
   -3.6304   -0.7500    0.0000 C   0  0  0  0  0  0  0  0  0  0  0  0
   -3.6304    0.7500    0.0000 N   0  0  0  0  0  0  0  0  0  0  0  0
   -2.3313    1.5000    0.0000 C   0  0  0  0  0  0  0  0  0  0  0  0
   -2.3313    3.0000    0.0000 N   0  0  0  0  0  0  0  0  0  0  0  0
   -1.0323    0.7500    0.0000 C   0  0  0  0  0  0  0  0  0  0  0  0
    0.3943    1.2135    0.0000 C   0  0  0  0  0  0  0  0  0  0  0  0
    1.2760    0.0000    0.0000 C   0  0  0  0  0  0  0  0  0  0  0  0
    0.3943   -1.2135    0.0000 S   0  0  0  0  0  0  0  0  0  0  0  0
   -1.0323   -0.7500    0.0000 C   0  0  0  0  0  0  0  0  0  0  0  0
    0.8578    2.6401    0.0000 C   0  0  0  0  0  0  0  0  0  0  0  0
    2.3250    2.9520    0.0000 C   0  0  0  0  0  0  0  0  0  0  0  0
    2.7886    4.3786    0.0000 C   0  0  0  0  0  0  0  0  0  0  0  0
    1.7849    5.4933    0.0000 C   0  0  0  0  0  0  0  0  0  0  0  0
    2.2484    6.9199    0.0000 N   0  0  0  0  0  0  0  0  0  0  0  0
    3.7156    7.2317    0.0000 C   0  0  0  0  0  0  0  0  0  0  0  0
    4.7193    6.1170    0.0000 O   0  0  0  0  0  0  0  0  0  0  0  0
    4.1791    8.6583    0.0000 N   0  0  0  0  0  0  0  0  0  0  0  0
    5.6464    8.9702    0.0000 C   0  0  0  0  0  0  0  0  0  0  0  0
    6.6501    7.8555    0.0000 C   0  0  0  0  0  0  0  0  0  0  0  0
    8.1173    8.1673    0.0000 C   0  0  0  0  0  0  0  0  0  0  0  0
    8.5808    9.5939    0.0000 C   0  0  0  0  0  0  0  0  0  0  0  0
    7.5771   10.7086    0.0000 C   0  0  0  0  0  0  0  0  0  0  0  0
    8.0406   12.1352    0.0000 C   0  0  0  0  0  0  0  0  0  0  0  0
    6.1099   10.3968    0.0000 C   0  0  0  0  0  0  0  0  0  0  0  0
    0.3177    5.1814    0.0000 C   0  0  0  0  0  0  0  0  0  0  0  0
   -0.1459    3.7548    0.0000 C   0  0  0  0  0  0  0  0  0  0  0  0
  1  2  1  0
  2  3  1  0
  3  4  1  0
  4  5  1  0
  3  6  1  0
  6  7  1  0
  7  8  3  0
  8  9  1  0
  9 10  2  0
 10 11  1  0
 11 12  2  0
 12 13  1  0
 12 14  1  0
 14 15  1  0
 15 16  2  0
 16 17  1  0
 17 18  1  0
 15 19  1  0
 19 20  2  0
 20 21  1  0
 21 22  2  0
 22 23  1  0
 23 24  1  0
 24 25  2  0
 24 26  1  0
 26 27  1  0
 27 28  2  0
 28 29  1  0
 29 30  2  0
 30 31  1  0
 31 32  1  0
 31 33  2  0
 22 34  1  0
 34 35  2  0
 18  9  1  0
 18 14  2  0
 35 19  1  0
 33 27  1  0
M  END
>  <activity_comment>  (118) 
active

>  <activity_id>  (118) 
9626194

>  <activity_properties>  (118) 
[]

>  <assay_chembl_id>  (118) 
CHEMBL1963787

>  <assay_description>  (118) 
PUBCHEM_BIOASSAY: Navigating the Kinome. (Class of assay: other) Panel member name: CAMK2B

>  <assay_type>  (118) 
F

>  <bao_endpoint>  (118) 
BAO_0000192

>  <bao_format>  (118) 
BAO_0000019

>  <bao_label>  (118) 
assay format

>  <canonical_smiles>  (118) 
CCN(CC)CC#Cc1cnc(N)c2c(csc12)c3ccc(NC(=O)Nc4cccc(C)c4)cc3

>  <data_validity_comment>  (118) 
nan

>  <data_validity_description>  (118) 
nan

>  <document_chembl_id>  (118) 
CHEMBL1201862

>  <document_journal>  (118) 
nan

>  <document_year>  (118) 
nan

>  <ligand_efficiency>  (118) 
nan

>  <molecule_pref_name>  (118) 
nan

>  <parent_molecule_chembl_id>  (118) 
CHEMBL2001257

>  <pchembl_value>  (118) 
5.3

>  <potential_duplicate>  (118) 
False

>  <qudt_units>  (118) 
http://www.openphacts.org/units/Nanomolar

>  <record_id>  (118) 
1584201

>  <relation>  (118) 
=

>  <src_id>  (118) 
7

>  <standard_flag>  (118) 
True

>  <standard_relation>  (118) 
=

>  <standard_text_value>  (118) 
nan

>  <standard_type>  (118) 
Ki

>  <standard_units>  (118) 
nM

>  <standard_upper_value>  (118) 
nan

>  <standard_value>  (118) 
5011.87

>  <target_chembl_id>  (118) 
CHEMBL4121

>  <target_organism>  (118) 
Homo sapiens

>  <target_pref_name>  (118) 
CaM kinase II beta

>  <target_tax_id>  (118) 
9606

>  <text_value>  (118) 
nan

>  <toid>  (118) 
nan

>  <type>  (118) 
pKi

>  <units>  (118) 
nan

>  <uo_units>  (118) 
UO_0000065

>  <upper_value>  (118) 
nan

>  <value>  (118) 
5.3

>  <SMILES>  (118) 
CCN(CC)CC#Cc1cnc(N)c2c(csc12)c3ccc(NC(=O)Nc4cccc(C)c4)cc3

>  <NAME>  (118) 
CHEMBL2001257

>  <FILTER>  (118) 
OK

>  <MW>  (118) 
483.641

>  <LogP>  (118) 
6.19122

>  <HBD>  (118) 
3

>  <HBA>  (118) 
5

>  <TPSA>  (118) 
83.28

>  <Label>  (118) 
CAMK2B

$$$$
CHEMBL1987793
     RDKit          2D

 33 37  0  0  0  0  0  0  0  0999 V2000
  -12.5489   -5.6664    0.0000 C   0  0  0  0  0  0  0  0  0  0  0  0
  -12.3921   -4.1746    0.0000 C   0  0  0  0  0  0  0  0  0  0  0  0
  -13.6056   -3.2929    0.0000 C   0  0  0  0  0  0  0  0  0  0  0  0
  -13.4488   -1.8011    0.0000 C   0  0  0  0  0  0  0  0  0  0  0  0
  -12.0785   -1.1910    0.0000 C   0  0  0  0  0  0  0  0  0  0  0  0
  -10.8650   -2.0727    0.0000 C   0  0  0  0  0  0  0  0  0  0  0  0
  -11.0218   -3.5645    0.0000 C   0  0  0  0  0  0  0  0  0  0  0  0
   -9.8083   -4.4462    0.0000 C   0  0  0  0  0  0  0  0  0  0  0  0
   -8.3817   -3.9826    0.0000 C   0  0  0  0  0  0  0  0  0  0  0  0
   -7.9182   -2.5560    0.0000 C   0  0  0  0  0  0  0  0  0  0  0  0
   -8.9218   -1.4413    0.0000 O   0  0  0  0  0  0  0  0  0  0  0  0
   -6.4509   -2.2442    0.0000 O   0  0  0  0  0  0  0  0  0  0  0  0
   -7.5000   -5.1962    0.0000 N   0  0  0  0  0  0  0  0  0  0  0  0
   -6.0000   -5.1962    0.0000 C   0  0  0  0  0  0  0  0  0  0  0  0
   -5.2500   -3.8971    0.0000 C   0  0  0  0  0  0  0  0  0  0  0  0
   -3.7500   -3.8971    0.0000 C   0  0  0  0  0  0  0  0  0  0  0  0
   -3.0000   -2.5981    0.0000 O   0  0  0  0  0  0  0  0  0  0  0  0
   -1.5000   -2.5981    0.0000 C   0  0  0  0  0  0  0  0  0  0  0  0
   -0.7500   -3.8971    0.0000 C   0  0  0  0  0  0  0  0  0  0  0  0
    0.7500   -3.8971    0.0000 C   0  0  0  0  0  0  0  0  0  0  0  0
    1.5000   -2.5981    0.0000 C   0  0  0  0  0  0  0  0  0  0  0  0
    0.7500   -1.2990    0.0000 C   0  0  0  0  0  0  0  0  0  0  0  0
    1.5000    0.0000    0.0000 C   0  0  0  0  0  0  0  0  0  0  0  0
    0.7500    1.2990    0.0000 C   0  0  0  0  0  0  0  0  0  0  0  0
   -0.7500    1.2990    0.0000 C   0  0  0  0  0  0  0  0  0  0  0  0
   -1.5000    0.0000    0.0000 C   0  0  0  0  0  0  0  0  0  0  0  0
   -0.7500   -1.2990    0.0000 C   0  0  0  0  0  0  0  0  0  0  0  0
   -8.3817   -6.4097    0.0000 C   0  0  0  0  0  0  0  0  0  0  0  0
   -8.0698   -7.8769    0.0000 C   0  0  0  0  0  0  0  0  0  0  0  0
   -9.1845   -8.8806    0.0000 C   0  0  0  0  0  0  0  0  0  0  0  0
  -10.6111   -8.4171    0.0000 C   0  0  0  0  0  0  0  0  0  0  0  0
  -10.9230   -6.9498    0.0000 C   0  0  0  0  0  0  0  0  0  0  0  0
   -9.8083   -5.9462    0.0000 C   0  0  0  0  0  0  0  0  0  0  0  0
  1  2  1  0
  2  3  2  0
  3  4  1  0
  4  5  2  0
  5  6  1  0
  6  7  2  0
  7  8  1  0
  8  9  2  0
  9 10  1  0
 10 11  2  0
 10 12  1  0
  9 13  1  0
 13 14  1  0
 14 15  1  0
 15 16  1  0
 16 17  1  0
 17 18  1  0
 18 19  2  0
 19 20  1  0
 20 21  2  0
 21 22  1  0
 22 23  2  0
 23 24  1  0
 24 25  2  0
 25 26  1  0
 26 27  2  0
 13 28  1  0
 28 29  2  0
 29 30  1  0
 30 31  2  0
 31 32  1  0
 32 33  2  0
  7  2  1  0
 33  8  1  0
 27 18  1  0
 27 22  1  0
 33 28  1  0
M  END
>  <activity_comment>  (119) 
active

>  <activity_id>  (119) 
9626196

>  <activity_properties>  (119) 
[]

>  <assay_chembl_id>  (119) 
CHEMBL1963787

>  <assay_description>  (119) 
PUBCHEM_BIOASSAY: Navigating the Kinome. (Class of assay: other) Panel member name: CAMK2B

>  <assay_type>  (119) 
F

>  <bao_endpoint>  (119) 
BAO_0000192

>  <bao_format>  (119) 
BAO_0000019

>  <bao_label>  (119) 
assay format

>  <canonical_smiles>  (119) 
Cc1ccccc1c2c(C(=O)O)n(CCCOc3cccc4ccccc34)c5ccccc25

>  <data_validity_comment>  (119) 
nan

>  <data_validity_description>  (119) 
nan

>  <document_chembl_id>  (119) 
CHEMBL1201862

>  <document_journal>  (119) 
nan

>  <document_year>  (119) 
nan

>  <ligand_efficiency>  (119) 
nan

>  <molecule_pref_name>  (119) 
nan

>  <parent_molecule_chembl_id>  (119) 
CHEMBL1987793

>  <pchembl_value>  (119) 
5.6

>  <potential_duplicate>  (119) 
False

>  <qudt_units>  (119) 
http://www.openphacts.org/units/Nanomolar

>  <record_id>  (119) 
1585051

>  <relation>  (119) 
=

>  <src_id>  (119) 
7

>  <standard_flag>  (119) 
True

>  <standard_relation>  (119) 
=

>  <standard_text_value>  (119) 
nan

>  <standard_type>  (119) 
Ki

>  <standard_units>  (119) 
nM

>  <standard_upper_value>  (119) 
nan

>  <standard_value>  (119) 
2511.89

>  <target_chembl_id>  (119) 
CHEMBL4121

>  <target_organism>  (119) 
Homo sapiens

>  <target_pref_name>  (119) 
CaM kinase II beta

>  <target_tax_id>  (119) 
9606

>  <text_value>  (119) 
nan

>  <toid>  (119) 
nan

>  <type>  (119) 
pKi

>  <units>  (119) 
nan

>  <uo_units>  (119) 
UO_0000065

>  <upper_value>  (119) 
nan

>  <value>  (119) 
5.6

>  <SMILES>  (119) 
Cc1ccccc1c2c(C(=O)O)n(CCCOc3cccc4ccccc34)c5ccccc25

>  <NAME>  (119) 
CHEMBL1987793

>  <FILTER>  (119) 
OK

>  <MW>  (119) 
435.523

>  <LogP>  (119) 
6.93722

>  <HBD>  (119) 
1

>  <HBA>  (119) 
3

>  <TPSA>  (119) 
51.46

>  <Label>  (119) 
CAMK2B

$$$$
CHEMBL1997534
     RDKit          2D

 29 32  0  0  0  0  0  0  0  0999 V2000
    9.5281   -1.3055    0.0000 C   0  0  0  0  0  0  0  0  0  0  0  0
    8.3145   -2.1872    0.0000 O   0  0  0  0  0  0  0  0  0  0  0  0
    8.4713   -3.6789    0.0000 C   0  0  0  0  0  0  0  0  0  0  0  0
    9.8417   -4.2890    0.0000 C   0  0  0  0  0  0  0  0  0  0  0  0
    9.9984   -5.7808    0.0000 C   0  0  0  0  0  0  0  0  0  0  0  0
    8.7849   -6.6625    0.0000 C   0  0  0  0  0  0  0  0  0  0  0  0
    7.4146   -6.0524    0.0000 C   0  0  0  0  0  0  0  0  0  0  0  0
    7.2578   -4.5606    0.0000 C   0  0  0  0  0  0  0  0  0  0  0  0
    6.2011   -6.9341    0.0000 C   0  0  0  0  0  0  0  0  0  0  0  0
    6.3579   -8.4259    0.0000 C   0  0  0  0  0  0  0  0  0  0  0  0
    4.8308   -6.3240    0.0000 N   0  0  0  0  0  0  0  0  0  0  0  0
    4.6740   -4.8322    0.0000 C   0  0  0  0  0  0  0  0  0  0  0  0
    5.8875   -3.9505    0.0000 O   0  0  0  0  0  0  0  0  0  0  0  0
    3.3037   -4.2221    0.0000 C   0  0  0  0  0  0  0  0  0  0  0  0
    2.0046   -4.9721    0.0000 C   0  0  0  0  0  0  0  0  0  0  0  0
    0.8899   -3.9684    0.0000 C   0  0  0  0  0  0  0  0  0  0  0  0
   -0.5773   -4.2803    0.0000 C   0  0  0  0  0  0  0  0  0  0  0  0
    1.5000   -2.5981    0.0000 C   0  0  0  0  0  0  0  0  0  0  0  0
    2.9918   -2.7549    0.0000 S   0  0  0  0  0  0  0  0  0  0  0  0
    0.7500   -1.2990    0.0000 C   0  0  0  0  0  0  0  0  0  0  0  0
    1.5000    0.0000    0.0000 C   0  0  0  0  0  0  0  0  0  0  0  0
    0.7500    1.2990    0.0000 C   0  0  0  0  0  0  0  0  0  0  0  0
   -0.7500    1.2990    0.0000 C   0  0  0  0  0  0  0  0  0  0  0  0
   -1.7537    2.4138    0.0000 N   0  0  0  0  0  0  0  0  0  0  0  0
   -3.1240    1.8037    0.0000 N   0  0  0  0  0  0  0  0  0  0  0  0
   -2.9672    0.3119    0.0000 C   0  0  0  0  0  0  0  0  0  0  0  0
   -4.0819   -0.6918    0.0000 C   0  0  0  0  0  0  0  0  0  0  0  0
   -1.5000    0.0000    0.0000 C   0  0  0  0  0  0  0  0  0  0  0  0
   -0.7500   -1.2990    0.0000 C   0  0  0  0  0  0  0  0  0  0  0  0
  1  2  1  0
  2  3  1  0
  3  4  2  0
  4  5  1  0
  5  6  2  0
  6  7  1  0
  7  8  2  0
  7  9  1  0
  9 10  1  0
  9 11  1  0
 11 12  1  0
 12 13  2  0
 12 14  1  0
 14 15  2  0
 15 16  1  0
 16 17  1  0
 16 18  2  0
 18 19  1  0
 18 20  1  0
 20 21  2  0
 21 22  1  0
 22 23  2  0
 23 24  1  0
 24 25  1  0
 25 26  2  0
 26 27  1  0
 26 28  1  0
 28 29  2  0
  8  3  1  0
 19 14  1  0
 29 20  1  0
 28 23  1  0
M  END
>  <activity_comment>  (120) 
active

>  <activity_id>  (120) 
9626205

>  <activity_properties>  (120) 
[]

>  <assay_chembl_id>  (120) 
CHEMBL1963787

>  <assay_description>  (120) 
PUBCHEM_BIOASSAY: Navigating the Kinome. (Class of assay: other) Panel member name: CAMK2B

>  <assay_type>  (120) 
F

>  <bao_endpoint>  (120) 
BAO_0000192

>  <bao_format>  (120) 
BAO_0000019

>  <bao_label>  (120) 
assay format

>  <canonical_smiles>  (120) 
COc1cccc(c1)C(C)NC(=O)c2cc(C)c(s2)c3ccc4[nH]nc(C)c4c3

>  <data_validity_comment>  (120) 
nan

>  <data_validity_description>  (120) 
nan

>  <document_chembl_id>  (120) 
CHEMBL1201862

>  <document_journal>  (120) 
nan

>  <document_year>  (120) 
nan

>  <ligand_efficiency>  (120) 
nan

>  <molecule_pref_name>  (120) 
nan

>  <parent_molecule_chembl_id>  (120) 
CHEMBL1997534

>  <pchembl_value>  (120) 
5.5

>  <potential_duplicate>  (120) 
False

>  <qudt_units>  (120) 
http://www.openphacts.org/units/Nanomolar

>  <record_id>  (120) 
1584620

>  <relation>  (120) 
=

>  <src_id>  (120) 
7

>  <standard_flag>  (120) 
True

>  <standard_relation>  (120) 
=

>  <standard_text_value>  (120) 
nan

>  <standard_type>  (120) 
Ki

>  <standard_units>  (120) 
nM

>  <standard_upper_value>  (120) 
nan

>  <standard_value>  (120) 
3162.28

>  <target_chembl_id>  (120) 
CHEMBL4121

>  <target_organism>  (120) 
Homo sapiens

>  <target_pref_name>  (120) 
CaM kinase II beta

>  <target_tax_id>  (120) 
9606

>  <text_value>  (120) 
nan

>  <toid>  (120) 
nan

>  <type>  (120) 
pKi

>  <units>  (120) 
nan

>  <uo_units>  (120) 
UO_0000065

>  <upper_value>  (120) 
nan

>  <value>  (120) 
5.5

>  <SMILES>  (120) 
COc1cccc(c1)C(C)NC(=O)c2cc(C)c(s2)c3ccc4[nH]nc(C)c4c3

>  <NAME>  (120) 
CHEMBL1997534

>  <FILTER>  (120) 
OK

>  <MW>  (120) 
405.523

>  <LogP>  (120) 
5.40784

>  <HBD>  (120) 
2

>  <HBA>  (120) 
4

>  <TPSA>  (120) 
67.01

>  <Label>  (120) 
CAMK2B

$$$$
CHEMBL2002446
     RDKit          2D

 33 38  0  0  0  0  0  0  0  0999 V2000
   -1.5000   -7.7942    0.0000 C   0  0  0  0  0  0  0  0  0  0  0  0
   -0.7500   -6.4952    0.0000 N   0  0  0  0  0  0  0  0  0  0  0  0
   -1.5000   -5.1962    0.0000 C   0  0  0  0  0  0  0  0  0  0  0  0
   -0.7500   -3.8971    0.0000 C   0  0  0  0  0  0  0  0  0  0  0  0
    0.7500   -3.8971    0.0000 N   0  0  0  0  0  0  0  0  0  0  0  0
    1.5000   -2.5981    0.0000 C   0  0  0  0  0  0  0  0  0  0  0  0
    0.7500   -1.2990    0.0000 C   0  0  0  0  0  0  0  0  0  0  0  0
    1.5000    0.0000    0.0000 C   0  0  0  0  0  0  0  0  0  0  0  0
    0.7500    1.2990    0.0000 C   0  0  0  0  0  0  0  0  0  0  0  0
   -0.7500    1.2990    0.0000 C   0  0  0  0  0  0  0  0  0  0  0  0
   -1.5000    0.0000    0.0000 C   0  0  0  0  0  0  0  0  0  0  0  0
   -2.9672    0.3119    0.0000 C   0  0  0  0  0  0  0  0  0  0  0  0
   -3.1240    1.8037    0.0000 C   0  0  0  0  0  0  0  0  0  0  0  0
   -4.1277    2.9184    0.0000 C   0  0  0  0  0  0  0  0  0  0  0  0
   -3.3777    4.2174    0.0000 N   0  0  0  0  0  0  0  0  0  0  0  0
   -1.9105    3.9055    0.0000 N   0  0  0  0  0  0  0  0  0  0  0  0
   -1.7537    2.4138    0.0000 C   0  0  0  0  0  0  0  0  0  0  0  0
   -5.6195    2.7616    0.0000 C   0  0  0  0  0  0  0  0  0  0  0  0
   -6.3695    1.4625    0.0000 C   0  0  0  0  0  0  0  0  0  0  0  0
   -7.8367    1.7744    0.0000 S   0  0  0  0  0  0  0  0  0  0  0  0
   -7.9935    3.2662    0.0000 C   0  0  0  0  0  0  0  0  0  0  0  0
   -6.6232    3.8763    0.0000 C   0  0  0  0  0  0  0  0  0  0  0  0
   -9.2925    4.0162    0.0000 C   0  0  0  0  0  0  0  0  0  0  0  0
  -10.5916    4.7662    0.0000 C   0  0  0  0  0  0  0  0  0  0  0  0
  -11.8906    5.5162    0.0000 C   0  0  0  0  0  0  0  0  0  0  0  0
  -11.8906    7.0162    0.0000 O   0  0  0  0  0  0  0  0  0  0  0  0
  -13.1897    7.7662    0.0000 C   0  0  0  0  0  0  0  0  0  0  0  0
  -13.1897    9.2662    0.0000 C   0  0  0  0  0  0  0  0  0  0  0  0
  -13.9397   10.5652    0.0000 C   0  0  0  0  0  0  0  0  0  0  0  0
  -12.4397   10.5652    0.0000 C   0  0  0  0  0  0  0  0  0  0  0  0
   -0.7500   -1.2990    0.0000 C   0  0  0  0  0  0  0  0  0  0  0  0
    1.5000   -5.1962    0.0000 C   0  0  0  0  0  0  0  0  0  0  0  0
    0.7500   -6.4952    0.0000 C   0  0  0  0  0  0  0  0  0  0  0  0
  1  2  1  0
  2  3  1  0
  3  4  1  0
  4  5  1  0
  5  6  1  0
  6  7  1  0
  7  8  2  0
  8  9  1  0
  9 10  2  0
 10 11  1  0
 11 12  1  0
 12 13  1  0
 13 14  1  0
 14 15  2  0
 15 16  1  0
 16 17  1  0
 14 18  1  0
 18 19  2  0
 19 20  1  0
 20 21  1  0
 21 22  2  0
 21 23  1  0
 23 24  3  0
 24 25  1  0
 25 26  1  0
 26 27  1  0
 27 28  1  0
 28 29  1  0
 29 30  1  0
 11 31  2  0
  5 32  1  0
 32 33  1  0
 33  2  1  0
 31  7  1  0
 17 10  1  0
 17 13  2  0
 22 18  1  0
 30 28  1  0
M  END
>  <activity_comment>  (121) 
active

>  <activity_id>  (121) 
9626214

>  <activity_properties>  (121) 
[]

>  <assay_chembl_id>  (121) 
CHEMBL1963787

>  <assay_description>  (121) 
PUBCHEM_BIOASSAY: Navigating the Kinome. (Class of assay: other) Panel member name: CAMK2B

>  <assay_type>  (121) 
F

>  <bao_endpoint>  (121) 
BAO_0000192

>  <bao_format>  (121) 
BAO_0000019

>  <bao_label>  (121) 
assay format

>  <canonical_smiles>  (121) 
CN1CCN(Cc2ccc3c(Cc4c(n[nH]c34)c5csc(c5)C#CCOCC6CC6)c2)CC1

>  <data_validity_comment>  (121) 
nan

>  <data_validity_description>  (121) 
nan

>  <document_chembl_id>  (121) 
CHEMBL1201862

>  <document_journal>  (121) 
nan

>  <document_year>  (121) 
nan

>  <ligand_efficiency>  (121) 
nan

>  <molecule_pref_name>  (121) 
nan

>  <parent_molecule_chembl_id>  (121) 
CHEMBL2002446

>  <pchembl_value>  (121) 
5.6

>  <potential_duplicate>  (121) 
False

>  <qudt_units>  (121) 
http://www.openphacts.org/units/Nanomolar

>  <record_id>  (121) 
1584693

>  <relation>  (121) 
=

>  <src_id>  (121) 
7

>  <standard_flag>  (121) 
True

>  <standard_relation>  (121) 
=

>  <standard_text_value>  (121) 
nan

>  <standard_type>  (121) 
Ki

>  <standard_units>  (121) 
nM

>  <standard_upper_value>  (121) 
nan

>  <standard_value>  (121) 
2511.89

>  <target_chembl_id>  (121) 
CHEMBL4121

>  <target_organism>  (121) 
Homo sapiens

>  <target_pref_name>  (121) 
CaM kinase II beta

>  <target_tax_id>  (121) 
9606

>  <text_value>  (121) 
nan

>  <toid>  (121) 
nan

>  <type>  (121) 
pKi

>  <units>  (121) 
nan

>  <uo_units>  (121) 
UO_0000065

>  <upper_value>  (121) 
nan

>  <value>  (121) 
5.6

>  <SMILES>  (121) 
CN1CCN(Cc2ccc3c(Cc4c(n[nH]c34)c5csc(c5)C#CCOCC6CC6)c2)CC1

>  <NAME>  (121) 
CHEMBL2002446

>  <FILTER>  (121) 
OK

>  <MW>  (121) 
458.631

>  <LogP>  (121) 
4.2349

>  <HBD>  (121) 
1

>  <HBA>  (121) 
5

>  <TPSA>  (121) 
44.39

>  <Label>  (121) 
CAMK2B

$$$$
CHEMBL497151
     RDKit          2D

 23 26  0  0  0  0  0  0  0  0999 V2000
    7.5000   -2.5981    0.0000 I   0  0  0  0  0  0  0  0  0  0  0  0
    6.0000   -2.5981    0.0000 C   0  0  0  0  0  0  0  0  0  0  0  0
    5.2500   -3.8971    0.0000 C   0  0  0  0  0  0  0  0  0  0  0  0
    3.7500   -3.8971    0.0000 C   0  0  0  0  0  0  0  0  0  0  0  0
    3.0000   -2.5981    0.0000 C   0  0  0  0  0  0  0  0  0  0  0  0
    1.5000   -2.5981    0.0000 O   0  0  0  0  0  0  0  0  0  0  0  0
    0.7500   -1.2990    0.0000 C   0  0  0  0  0  0  0  0  0  0  0  0
    1.5000    0.0000    0.0000 C   0  0  0  0  0  0  0  0  0  0  0  0
    0.7500    1.2990    0.0000 N   0  0  0  0  0  0  0  0  0  0  0  0
   -0.7500    1.2990    0.0000 C   0  0  0  0  0  0  0  0  0  0  0  0
   -1.5000    0.0000    0.0000 C   0  0  0  0  0  0  0  0  0  0  0  0
   -2.9672   -0.3119    0.0000 S   0  0  0  0  0  0  0  0  0  0  0  0
   -3.1240   -1.8037    0.0000 C   0  0  0  0  0  0  0  0  0  0  0  0
   -1.7537   -2.4138    0.0000 C   0  0  0  0  0  0  0  0  0  0  0  0
   -0.7500   -1.2990    0.0000 C   0  0  0  0  0  0  0  0  0  0  0  0
   -4.4231   -2.5537    0.0000 C   0  0  0  0  0  0  0  0  0  0  0  0
   -4.5798   -4.0454    0.0000 N   0  0  0  0  0  0  0  0  0  0  0  0
   -6.0471   -4.3573    0.0000 C   0  0  0  0  0  0  0  0  0  0  0  0
   -6.6572   -5.7276    0.0000 O   0  0  0  0  0  0  0  0  0  0  0  0
   -6.7971   -3.0583    0.0000 O   0  0  0  0  0  0  0  0  0  0  0  0
   -5.7934   -1.9435    0.0000 N   0  0  0  0  0  0  0  0  0  0  0  0
    3.7500   -1.2990    0.0000 C   0  0  0  0  0  0  0  0  0  0  0  0
    5.2500   -1.2990    0.0000 C   0  0  0  0  0  0  0  0  0  0  0  0
  1  2  1  0
  2  3  2  0
  3  4  1  0
  4  5  2  0
  5  6  1  0
  6  7  1  0
  7  8  2  0
  8  9  1  0
  9 10  2  0
 10 11  1  0
 11 12  1  0
 12 13  1  0
 13 14  2  0
 14 15  1  0
 13 16  1  0
 16 17  2  0
 17 18  1  0
 18 19  2  0
 18 20  1  0
 20 21  1  0
  5 22  1  0
 22 23  2  0
 23  2  1  0
 15  7  1  0
 15 11  2  0
 21 16  1  0
M  END
>  <activity_comment>  (122) 
active

>  <activity_id>  (122) 
9626215

>  <activity_properties>  (122) 
[]

>  <assay_chembl_id>  (122) 
CHEMBL1963787

>  <assay_description>  (122) 
PUBCHEM_BIOASSAY: Navigating the Kinome. (Class of assay: other) Panel member name: CAMK2B

>  <assay_type>  (122) 
F

>  <bao_endpoint>  (122) 
BAO_0000192

>  <bao_format>  (122) 
BAO_0000019

>  <bao_label>  (122) 
assay format

>  <canonical_smiles>  (122) 
Ic1ccc(Oc2cncc3sc(cc23)C4=NC(=O)ON4)cc1

>  <data_validity_comment>  (122) 
nan

>  <data_validity_description>  (122) 
nan

>  <document_chembl_id>  (122) 
CHEMBL1201862

>  <document_journal>  (122) 
nan

>  <document_year>  (122) 
nan

>  <ligand_efficiency>  (122) 
nan

>  <molecule_pref_name>  (122) 
nan

>  <parent_molecule_chembl_id>  (122) 
CHEMBL497151

>  <pchembl_value>  (122) 
5.5

>  <potential_duplicate>  (122) 
False

>  <qudt_units>  (122) 
http://www.openphacts.org/units/Nanomolar

>  <record_id>  (122) 
1585253

>  <relation>  (122) 
=

>  <src_id>  (122) 
7

>  <standard_flag>  (122) 
True

>  <standard_relation>  (122) 
=

>  <standard_text_value>  (122) 
nan

>  <standard_type>  (122) 
Ki

>  <standard_units>  (122) 
nM

>  <standard_upper_value>  (122) 
nan

>  <standard_value>  (122) 
3162.28

>  <target_chembl_id>  (122) 
CHEMBL4121

>  <target_organism>  (122) 
Homo sapiens

>  <target_pref_name>  (122) 
CaM kinase II beta

>  <target_tax_id>  (122) 
9606

>  <text_value>  (122) 
nan

>  <toid>  (122) 
nan

>  <type>  (122) 
pKi

>  <units>  (122) 
nan

>  <uo_units>  (122) 
UO_0000065

>  <upper_value>  (122) 
nan

>  <value>  (122) 
5.5

>  <SMILES>  (122) 
Ic1ccc(Oc2cncc3sc(cc23)C4=NC(=O)ON4)cc1

>  <NAME>  (122) 
CHEMBL497151

>  <FILTER>  (122) 
OK

>  <MW>  (122) 
437.218

>  <LogP>  (122) 
4.0365

>  <HBD>  (122) 
1

>  <HBA>  (122) 
6

>  <TPSA>  (122) 
81.01

>  <Label>  (122) 
CAMK2B

$$$$
CHEMBL246970
     RDKit          2D

 28 30  0  0  0  0  0  0  0  0999 V2000
    3.7500   -1.2990    0.0000 N   0  0  0  0  0  0  0  0  0  0  0  0
    3.0000    0.0000    0.0000 C   0  0  0  0  0  0  0  0  0  0  0  0
    1.5000    0.0000    0.0000 C   0  0  0  0  0  0  0  0  0  0  0  0
    0.7500   -1.2990    0.0000 C   0  0  0  0  0  0  0  0  0  0  0  0
   -0.7500   -1.2990    0.0000 C   0  0  0  0  0  0  0  0  0  0  0  0
   -1.5000    0.0000    0.0000 C   0  0  0  0  0  0  0  0  0  0  0  0
   -3.0000    0.0000    0.0000 C   0  0  0  0  0  0  0  0  0  0  0  0
   -3.7500    1.2990    0.0000 N   0  0  0  0  0  0  0  0  0  0  0  0
   -5.2500    1.2990    0.0000 C   0  0  0  0  0  0  0  0  0  0  0  0
   -6.0000    2.5981    0.0000 N   0  0  0  0  0  0  0  0  0  0  0  0
   -7.5000    2.5981    0.0000 C   0  0  0  0  0  0  0  0  0  0  0  0
   -8.2500    3.8971    0.0000 N   0  0  0  0  0  0  0  0  0  0  0  0
   -7.5000    5.1962    0.0000 C   0  0  0  0  0  0  0  0  0  0  0  0
   -8.2500    6.4952    0.0000 C   0  0  0  0  0  0  0  0  0  0  0  0
   -7.5000    7.7942    0.0000 C   0  0  0  0  0  0  0  0  0  0  0  0
   -8.2500    9.0933    0.0000 C   0  0  0  0  0  0  0  0  0  0  0  0
   -9.7500    9.0933    0.0000 C   0  0  0  0  0  0  0  0  0  0  0  0
  -10.5000    7.7942    0.0000 C   0  0  0  0  0  0  0  0  0  0  0  0
   -9.7500    6.4952    0.0000 C   0  0  0  0  0  0  0  0  0  0  0  0
  -10.5000    5.1962    0.0000 Cl  0  0  0  0  0  0  0  0  0  0  0  0
   -8.2500    1.2990    0.0000 N   0  0  0  0  0  0  0  0  0  0  0  0
   -7.5000    0.0000    0.0000 C   0  0  0  0  0  0  0  0  0  0  0  0
   -6.0000    0.0000    0.0000 C   0  0  0  0  0  0  0  0  0  0  0  0
   -5.2500   -1.2990    0.0000 N   0  0  0  0  0  0  0  0  0  0  0  0
   -3.7500   -1.2990    0.0000 O   0  0  0  0  0  0  0  0  0  0  0  0
   -6.0000   -2.5981    0.0000 O   0  0  0  0  0  0  0  0  0  0  0  0
   -0.7500    1.2990    0.0000 C   0  0  0  0  0  0  0  0  0  0  0  0
    0.7500    1.2990    0.0000 C   0  0  0  0  0  0  0  0  0  0  0  0
  1  2  1  0
  2  3  1  0
  3  4  1  0
  4  5  1  0
  5  6  1  0
  6  7  1  0
  7  8  1  0
  8  9  1  0
  9 10  2  0
 10 11  1  0
 11 12  1  0
 12 13  1  0
 13 14  1  0
 14 15  2  0
 15 16  1  0
 16 17  2  0
 17 18  1  0
 18 19  2  0
 19 20  1  0
 11 21  2  0
 21 22  1  0
 22 23  2  0
 23 24  1  0
 24 25  2  0
 24 26  1  0
  6 27  1  0
 27 28  1  0
 28  3  1  0
 23  9  1  0
 19 14  1  0
M  CHG  2  24   1  26  -1
M  END
>  <activity_comment>  (123) 
active

>  <activity_id>  (123) 
9626216

>  <activity_properties>  (123) 
[]

>  <assay_chembl_id>  (123) 
CHEMBL1963787

>  <assay_description>  (123) 
PUBCHEM_BIOASSAY: Navigating the Kinome. (Class of assay: other) Panel member name: CAMK2B

>  <assay_type>  (123) 
F

>  <bao_endpoint>  (123) 
BAO_0000192

>  <bao_format>  (123) 
BAO_0000019

>  <bao_label>  (123) 
assay format

>  <canonical_smiles>  (123) 
NCC1CCC(CNc2nc(NCc3ccccc3Cl)ncc2[N+](=O)[O-])CC1

>  <data_validity_comment>  (123) 
nan

>  <data_validity_description>  (123) 
nan

>  <document_chembl_id>  (123) 
CHEMBL1201862

>  <document_journal>  (123) 
nan

>  <document_year>  (123) 
nan

>  <ligand_efficiency>  (123) 
nan

>  <molecule_pref_name>  (123) 
nan

>  <parent_molecule_chembl_id>  (123) 
CHEMBL246970

>  <pchembl_value>  (123) 
5.8

>  <potential_duplicate>  (123) 
False

>  <qudt_units>  (123) 
http://www.openphacts.org/units/Nanomolar

>  <record_id>  (123) 
1585354

>  <relation>  (123) 
=

>  <src_id>  (123) 
7

>  <standard_flag>  (123) 
True

>  <standard_relation>  (123) 
=

>  <standard_text_value>  (123) 
nan

>  <standard_type>  (123) 
Ki

>  <standard_units>  (123) 
nM

>  <standard_upper_value>  (123) 
nan

>  <standard_value>  (123) 
1584.89

>  <target_chembl_id>  (123) 
CHEMBL4121

>  <target_organism>  (123) 
Homo sapiens

>  <target_pref_name>  (123) 
CaM kinase II beta

>  <target_tax_id>  (123) 
9606

>  <text_value>  (123) 
nan

>  <toid>  (123) 
nan

>  <type>  (123) 
pKi

>  <units>  (123) 
nan

>  <uo_units>  (123) 
UO_0000065

>  <upper_value>  (123) 
nan

>  <value>  (123) 
5.8

>  <SMILES>  (123) 
NCC1CCC(CNc2nc(NCc3ccccc3Cl)ncc2[N+](=O)[O-])CC1

>  <NAME>  (123) 
CHEMBL246970

>  <FILTER>  (123) 
OK

>  <MW>  (123) 
404.902

>  <LogP>  (123) 
3.8273

>  <HBD>  (123) 
3

>  <HBA>  (123) 
7

>  <TPSA>  (123) 
119.0

>  <Label>  (123) 
CAMK2B

$$$$
CHEMBL340921
     RDKit          2D

 28 31  0  0  0  0  0  0  0  0999 V2000
   -3.0000   -5.1962    0.0000 C   0  0  0  0  0  0  0  0  0  0  0  0
   -3.7500   -3.8971    0.0000 C   0  0  0  0  0  0  0  0  0  0  0  0
   -5.2500   -3.8971    0.0000 C   0  0  0  0  0  0  0  0  0  0  0  0
   -6.0000   -2.5981    0.0000 C   0  0  0  0  0  0  0  0  0  0  0  0
   -7.5000   -2.5981    0.0000 O   0  0  0  0  0  0  0  0  0  0  0  0
   -5.2500   -1.2990    0.0000 C   0  0  0  0  0  0  0  0  0  0  0  0
   -3.7500   -1.2990    0.0000 C   0  0  0  0  0  0  0  0  0  0  0  0
   -3.0000   -2.5981    0.0000 C   0  0  0  0  0  0  0  0  0  0  0  0
   -1.5000   -2.5981    0.0000 N   0  0  0  0  0  0  0  0  0  0  0  0
   -0.7500   -3.8971    0.0000 C   0  0  0  0  0  0  0  0  0  0  0  0
    0.7500   -3.8971    0.0000 C   0  0  0  0  0  0  0  0  0  0  0  0
    1.5000   -5.1962    0.0000 C   0  0  0  0  0  0  0  0  0  0  0  0
    3.0000   -5.1962    0.0000 O   0  0  0  0  0  0  0  0  0  0  0  0
    0.7500   -6.4952    0.0000 N   0  0  0  0  0  0  0  0  0  0  0  0
    1.5000   -2.5981    0.0000 C   0  0  0  0  0  0  0  0  0  0  0  0
    3.0000   -2.5981    0.0000 O   0  0  0  0  0  0  0  0  0  0  0  0
    0.7500   -1.2990    0.0000 C   0  0  0  0  0  0  0  0  0  0  0  0
    1.5000    0.0000    0.0000 C   0  0  0  0  0  0  0  0  0  0  0  0
    0.7500    1.2990    0.0000 C   0  0  0  0  0  0  0  0  0  0  0  0
   -0.7500    1.2990    0.0000 C   0  0  0  0  0  0  0  0  0  0  0  0
   -1.5000    0.0000    0.0000 C   0  0  0  0  0  0  0  0  0  0  0  0
   -0.7500   -1.2990    0.0000 C   0  0  0  0  0  0  0  0  0  0  0  0
   -1.5000    2.5981    0.0000 C   0  0  0  0  0  0  0  0  0  0  0  0
   -0.7500    3.8971    0.0000 C   0  0  0  0  0  0  0  0  0  0  0  0
   -1.5000    5.1962    0.0000 C   0  0  0  0  0  0  0  0  0  0  0  0
   -3.0000    5.1962    0.0000 N   0  0  0  0  0  0  0  0  0  0  0  0
   -3.7500    3.8971    0.0000 C   0  0  0  0  0  0  0  0  0  0  0  0
   -3.0000    2.5981    0.0000 C   0  0  0  0  0  0  0  0  0  0  0  0
  1  2  1  0
  2  3  2  0
  3  4  1  0
  4  5  1  0
  4  6  2  0
  6  7  1  0
  7  8  2  0
  8  9  1  0
  9 10  1  0
 10 11  2  0
 11 12  1  0
 12 13  2  0
 12 14  1  0
 11 15  1  0
 15 16  2  0
 15 17  1  0
 17 18  2  0
 18 19  1  0
 19 20  2  0
 20 21  1  0
 21 22  2  0
 20 23  1  0
 23 24  2  0
 24 25  1  0
 25 26  2  0
 26 27  1  0
 27 28  2  0
  8  2  1  0
 22  9  1  0
 22 17  1  0
 28 23  1  0
M  END
>  <activity_comment>  (124) 
active

>  <activity_id>  (124) 
9626217

>  <activity_properties>  (124) 
[]

>  <assay_chembl_id>  (124) 
CHEMBL1963787

>  <assay_description>  (124) 
PUBCHEM_BIOASSAY: Navigating the Kinome. (Class of assay: other) Panel member name: CAMK2B

>  <assay_type>  (124) 
F

>  <bao_endpoint>  (124) 
BAO_0000192

>  <bao_format>  (124) 
BAO_0000019

>  <bao_label>  (124) 
assay format

>  <canonical_smiles>  (124) 
Cc1cc(O)ccc1N2C=C(C(=O)N)C(=O)c3ccc(cc23)c4ccncc4

>  <data_validity_comment>  (124) 
nan

>  <data_validity_description>  (124) 
nan

>  <document_chembl_id>  (124) 
CHEMBL1201862

>  <document_journal>  (124) 
nan

>  <document_year>  (124) 
nan

>  <ligand_efficiency>  (124) 
nan

>  <molecule_pref_name>  (124) 
nan

>  <parent_molecule_chembl_id>  (124) 
CHEMBL340921

>  <pchembl_value>  (124) 
5.3

>  <potential_duplicate>  (124) 
False

>  <qudt_units>  (124) 
http://www.openphacts.org/units/Nanomolar

>  <record_id>  (124) 
1585238

>  <relation>  (124) 
=

>  <src_id>  (124) 
7

>  <standard_flag>  (124) 
True

>  <standard_relation>  (124) 
=

>  <standard_text_value>  (124) 
nan

>  <standard_type>  (124) 
Ki

>  <standard_units>  (124) 
nM

>  <standard_upper_value>  (124) 
nan

>  <standard_value>  (124) 
5011.87

>  <target_chembl_id>  (124) 
CHEMBL4121

>  <target_organism>  (124) 
Homo sapiens

>  <target_pref_name>  (124) 
CaM kinase II beta

>  <target_tax_id>  (124) 
9606

>  <text_value>  (124) 
nan

>  <toid>  (124) 
nan

>  <type>  (124) 
pKi

>  <units>  (124) 
nan

>  <uo_units>  (124) 
UO_0000065

>  <upper_value>  (124) 
nan

>  <value>  (124) 
5.3

>  <SMILES>  (124) 
Cc1cc(O)ccc1N2C=C(C(=O)N)C(=O)c3ccc(cc23)c4ccncc4

>  <NAME>  (124) 
CHEMBL340921

>  <FILTER>  (124) 
OK

>  <MW>  (124) 
371.396

>  <LogP>  (124) 
3.16562

>  <HBD>  (124) 
2

>  <HBA>  (124) 
5

>  <TPSA>  (124) 
98.21

>  <Label>  (124) 
CAMK2B

$$$$
CHEMBL1973540
     RDKit          2D

 31 35  0  0  0  0  0  0  0  0999 V2000
   -5.7161    3.2791    0.0000 O   0  0  0  0  0  0  0  0  0  0  0  0
   -4.2489    2.9672    0.0000 C   0  0  0  0  0  0  0  0  0  0  0  0
   -3.1342    3.9709    0.0000 N   0  0  0  0  0  0  0  0  0  0  0  0
   -1.8351    3.2209    0.0000 C   0  0  0  0  0  0  0  0  0  0  0  0
   -0.4086    3.6844    0.0000 C   0  0  0  0  0  0  0  0  0  0  0  0
    0.7062    2.6807    0.0000 C   0  0  0  0  0  0  0  0  0  0  0  0
    0.3943    1.2135    0.0000 C   0  0  0  0  0  0  0  0  0  0  0  0
    1.2760    0.0000    0.0000 N   0  0  0  0  0  0  0  0  0  0  0  0
    0.3943   -1.2135    0.0000 C   0  0  0  0  0  0  0  0  0  0  0  0
   -1.0323   -0.7500    0.0000 S   0  0  0  0  0  0  0  0  0  0  0  0
   -1.0323    0.7500    0.0000 C   0  0  0  0  0  0  0  0  0  0  0  0
   -2.1470    1.7537    0.0000 C   0  0  0  0  0  0  0  0  0  0  0  0
   -3.6388    1.5969    0.0000 C   0  0  0  0  0  0  0  0  0  0  0  0
   -4.3888    0.2979    0.0000 C   0  0  0  0  0  0  0  0  0  0  0  0
   -5.8888    0.2979    0.0000 N   0  0  0  0  0  0  0  0  0  0  0  0
   -6.6388   -1.0012    0.0000 C   0  0  0  0  0  0  0  0  0  0  0  0
   -8.1388   -1.0012    0.0000 C   0  0  0  0  0  0  0  0  0  0  0  0
   -8.8888   -2.3002    0.0000 C   0  0  0  0  0  0  0  0  0  0  0  0
   -8.1388   -3.5992    0.0000 C   0  0  0  0  0  0  0  0  0  0  0  0
   -6.6388   -3.5992    0.0000 C   0  0  0  0  0  0  0  0  0  0  0  0
   -5.8888   -2.3002    0.0000 C   0  0  0  0  0  0  0  0  0  0  0  0
   -8.8888   -4.8983    0.0000 S   0  0  0  0  0  0  0  0  0  0  0  0
  -10.1878   -4.1483    0.0000 O   0  0  0  0  0  0  0  0  0  0  0  0
   -7.5897   -5.6483    0.0000 O   0  0  0  0  0  0  0  0  0  0  0  0
   -9.6388   -6.1973    0.0000 N   0  0  0  0  0  0  0  0  0  0  0  0
   -8.8888   -7.4964    0.0000 C   0  0  0  0  0  0  0  0  0  0  0  0
   -9.6388   -8.7954    0.0000 C   0  0  0  0  0  0  0  0  0  0  0  0
   -8.8888  -10.0944    0.0000 C   0  0  0  0  0  0  0  0  0  0  0  0
   -7.3888  -10.0944    0.0000 C   0  0  0  0  0  0  0  0  0  0  0  0
   -6.6388   -8.7954    0.0000 C   0  0  0  0  0  0  0  0  0  0  0  0
   -7.3888   -7.4964    0.0000 N   0  0  0  0  0  0  0  0  0  0  0  0
  1  2  2  0
  2  3  1  0
  3  4  1  0
  4  5  2  0
  5  6  1  0
  6  7  2  0
  7  8  1  0
  8  9  2  0
  9 10  1  0
 10 11  1  0
 11 12  2  0
 12 13  1  0
 13 14  2  3
 14 15  1  0
 15 16  1  0
 16 17  2  0
 17 18  1  0
 18 19  2  0
 19 20  1  0
 20 21  2  0
 19 22  1  0
 22 23  2  0
 22 24  2  0
 22 25  1  0
 25 26  1  0
 26 27  2  0
 27 28  1  0
 28 29  2  0
 29 30  1  0
 30 31  2  0
 13  2  1  0
 12  4  1  0
 11  7  1  0
 21 16  1  0
 31 26  1  0
M  END
>  <activity_comment>  (125) 
active

>  <activity_id>  (125) 
9626219

>  <activity_properties>  (125) 
[]

>  <assay_chembl_id>  (125) 
CHEMBL1963787

>  <assay_description>  (125) 
PUBCHEM_BIOASSAY: Navigating the Kinome. (Class of assay: other) Panel member name: CAMK2B

>  <assay_type>  (125) 
F

>  <bao_endpoint>  (125) 
BAO_0000192

>  <bao_format>  (125) 
BAO_0000019

>  <bao_label>  (125) 
assay format

>  <canonical_smiles>  (125) 
O=C1Nc2ccc3ncsc3c2C1=CNc4ccc(cc4)S(=O)(=O)Nc5ccccn5

>  <data_validity_comment>  (125) 
nan

>  <data_validity_description>  (125) 
nan

>  <document_chembl_id>  (125) 
CHEMBL1201862

>  <document_journal>  (125) 
nan

>  <document_year>  (125) 
nan

>  <ligand_efficiency>  (125) 
nan

>  <molecule_pref_name>  (125) 
nan

>  <parent_molecule_chembl_id>  (125) 
CHEMBL1973540

>  <pchembl_value>  (125) 
6.6

>  <potential_duplicate>  (125) 
False

>  <qudt_units>  (125) 
http://www.openphacts.org/units/Nanomolar

>  <record_id>  (125) 
1584835

>  <relation>  (125) 
=

>  <src_id>  (125) 
7

>  <standard_flag>  (125) 
True

>  <standard_relation>  (125) 
=

>  <standard_text_value>  (125) 
nan

>  <standard_type>  (125) 
Ki

>  <standard_units>  (125) 
nM

>  <standard_upper_value>  (125) 
nan

>  <standard_value>  (125) 
251.19

>  <target_chembl_id>  (125) 
CHEMBL4121

>  <target_organism>  (125) 
Homo sapiens

>  <target_pref_name>  (125) 
CaM kinase II beta

>  <target_tax_id>  (125) 
9606

>  <text_value>  (125) 
nan

>  <toid>  (125) 
nan

>  <type>  (125) 
pKi

>  <units>  (125) 
nan

>  <uo_units>  (125) 
UO_0000065

>  <upper_value>  (125) 
nan

>  <value>  (125) 
6.6

>  <SMILES>  (125) 
O=C1Nc2ccc3ncsc3c2C1=CNc4ccc(cc4)S(=O)(=O)Nc5ccccn5

>  <NAME>  (125) 
CHEMBL1973540

>  <FILTER>  (125) 
OK

>  <MW>  (125) 
449.517

>  <LogP>  (125) 
3.8972

>  <HBD>  (125) 
3

>  <HBA>  (125) 
7

>  <TPSA>  (125) 
113.08

>  <Label>  (125) 
CAMK2B

$$$$
CHEMBL2006439
     RDKit          2D

 23 26  0  0  0  0  0  0  0  0999 V2000
   -6.2961   -1.6453    0.0000 Cl  0  0  0  0  0  0  0  0  0  0  0  0
   -5.1814   -2.6490    0.0000 C   0  0  0  0  0  0  0  0  0  0  0  0
   -3.7548   -2.1855    0.0000 C   0  0  0  0  0  0  0  0  0  0  0  0
   -2.6401   -3.1891    0.0000 C   0  0  0  0  0  0  0  0  0  0  0  0
   -2.9520   -4.6564    0.0000 N   0  0  0  0  0  0  0  0  0  0  0  0
   -4.3786   -5.1199    0.0000 C   0  0  0  0  0  0  0  0  0  0  0  0
   -4.6904   -6.5871    0.0000 N   0  0  0  0  0  0  0  0  0  0  0  0
   -6.1170   -7.0506    0.0000 C   0  0  0  0  0  0  0  0  0  0  0  0
   -7.2317   -6.0469    0.0000 C   0  0  0  0  0  0  0  0  0  0  0  0
   -8.6583   -6.5105    0.0000 C   0  0  0  0  0  0  0  0  0  0  0  0
   -8.9702   -7.9777    0.0000 C   0  0  0  0  0  0  0  0  0  0  0  0
   -7.8555   -8.9814    0.0000 C   0  0  0  0  0  0  0  0  0  0  0  0
   -6.4289   -8.5179    0.0000 C   0  0  0  0  0  0  0  0  0  0  0  0
   -5.4933   -4.1162    0.0000 N   0  0  0  0  0  0  0  0  0  0  0  0
   -1.2135   -2.7256    0.0000 C   0  0  0  0  0  0  0  0  0  0  0  0
    0.0000   -3.6073    0.0000 C   0  0  0  0  0  0  0  0  0  0  0  0
    1.2135   -2.7256    0.0000 N   0  0  0  0  0  0  0  0  0  0  0  0
    0.7500   -1.2990    0.0000 C   0  0  0  0  0  0  0  0  0  0  0  0
    1.5000    0.0000    0.0000 N   0  0  0  0  0  0  0  0  0  0  0  0
    0.7500    1.2990    0.0000 C   0  0  0  0  0  0  0  0  0  0  0  0
   -0.7500    1.2990    0.0000 C   0  0  0  0  0  0  0  0  0  0  0  0
   -1.5000    0.0000    0.0000 C   0  0  0  0  0  0  0  0  0  0  0  0
   -0.7500   -1.2990    0.0000 C   0  0  0  0  0  0  0  0  0  0  0  0
  1  2  1  0
  2  3  2  0
  3  4  1  0
  4  5  2  0
  5  6  1  0
  6  7  1  0
  7  8  1  0
  8  9  1  0
  9 10  1  0
 10 11  1  0
 11 12  1  0
 12 13  1  0
  6 14  2  0
  4 15  1  0
 15 16  2  0
 16 17  1  0
 17 18  1  0
 18 19  2  0
 19 20  1  0
 20 21  2  0
 21 22  1  0
 22 23  2  0
 14  2  1  0
 13  8  1  0
 23 15  1  0
 23 18  1  0
M  END
>  <activity_comment>  (126) 
active

>  <activity_id>  (126) 
9626224

>  <activity_properties>  (126) 
[]

>  <assay_chembl_id>  (126) 
CHEMBL1963787

>  <assay_description>  (126) 
PUBCHEM_BIOASSAY: Navigating the Kinome. (Class of assay: other) Panel member name: CAMK2B

>  <assay_type>  (126) 
F

>  <bao_endpoint>  (126) 
BAO_0000192

>  <bao_format>  (126) 
BAO_0000019

>  <bao_label>  (126) 
assay format

>  <canonical_smiles>  (126) 
Clc1cc(nc(NC2CCCCC2)n1)c3c[nH]c4ncccc34

>  <data_validity_comment>  (126) 
nan

>  <data_validity_description>  (126) 
nan

>  <document_chembl_id>  (126) 
CHEMBL1201862

>  <document_journal>  (126) 
nan

>  <document_year>  (126) 
nan

>  <ligand_efficiency>  (126) 
nan

>  <molecule_pref_name>  (126) 
nan

>  <parent_molecule_chembl_id>  (126) 
CHEMBL2006439

>  <pchembl_value>  (126) 
5.8

>  <potential_duplicate>  (126) 
False

>  <qudt_units>  (126) 
http://www.openphacts.org/units/Nanomolar

>  <record_id>  (126) 
1584079

>  <relation>  (126) 
=

>  <src_id>  (126) 
7

>  <standard_flag>  (126) 
True

>  <standard_relation>  (126) 
=

>  <standard_text_value>  (126) 
nan

>  <standard_type>  (126) 
Ki

>  <standard_units>  (126) 
nM

>  <standard_upper_value>  (126) 
nan

>  <standard_value>  (126) 
1584.89

>  <target_chembl_id>  (126) 
CHEMBL4121

>  <target_organism>  (126) 
Homo sapiens

>  <target_pref_name>  (126) 
CaM kinase II beta

>  <target_tax_id>  (126) 
9606

>  <text_value>  (126) 
nan

>  <toid>  (126) 
nan

>  <type>  (126) 
pKi

>  <units>  (126) 
nan

>  <uo_units>  (126) 
UO_0000065

>  <upper_value>  (126) 
nan

>  <value>  (126) 
5.8

>  <SMILES>  (126) 
Clc1cc(nc(NC2CCCCC2)n1)c3c[nH]c4ncccc34

>  <NAME>  (126) 
CHEMBL2006439

>  <FILTER>  (126) 
OK

>  <MW>  (126) 
327.819

>  <LogP>  (126) 
4.4179

>  <HBD>  (126) 
2

>  <HBA>  (126) 
4

>  <TPSA>  (126) 
66.49

>  <Label>  (126) 
CAMK2B

$$$$
CHEMBL1991674
     RDKit          2D

 24 27  0  0  0  0  0  0  0  0999 V2000
   -5.0487    4.2236    0.0000 O   0  0  0  0  0  0  0  0  0  0  0  0
   -5.3605    2.7564    0.0000 C   0  0  0  0  0  0  0  0  0  0  0  0
   -4.2458    1.7527    0.0000 C   0  0  0  0  0  0  0  0  0  0  0  0
   -4.5577    0.2855    0.0000 C   0  0  0  0  0  0  0  0  0  0  0  0
   -5.9843   -0.1781    0.0000 C   0  0  0  0  0  0  0  0  0  0  0  0
   -7.0990    0.8256    0.0000 C   0  0  0  0  0  0  0  0  0  0  0  0
   -6.7871    2.2929    0.0000 C   0  0  0  0  0  0  0  0  0  0  0  0
   -6.2961   -1.6453    0.0000 N   0  0  0  0  0  0  0  0  0  0  0  0
   -5.1814   -2.6490    0.0000 C   0  0  0  0  0  0  0  0  0  0  0  0
   -5.4933   -4.1162    0.0000 C   0  0  0  0  0  0  0  0  0  0  0  0
   -4.3786   -5.1199    0.0000 C   0  0  0  0  0  0  0  0  0  0  0  0
   -4.6904   -6.5871    0.0000 Cl  0  0  0  0  0  0  0  0  0  0  0  0
   -2.9520   -4.6564    0.0000 N   0  0  0  0  0  0  0  0  0  0  0  0
   -2.6401   -3.1891    0.0000 C   0  0  0  0  0  0  0  0  0  0  0  0
   -3.7548   -2.1855    0.0000 N   0  0  0  0  0  0  0  0  0  0  0  0
   -1.2135   -2.7256    0.0000 C   0  0  0  0  0  0  0  0  0  0  0  0
    0.0000   -3.6073    0.0000 C   0  0  0  0  0  0  0  0  0  0  0  0
    1.2135   -2.7256    0.0000 N   0  0  0  0  0  0  0  0  0  0  0  0
    0.7500   -1.2990    0.0000 C   0  0  0  0  0  0  0  0  0  0  0  0
    1.5000    0.0000    0.0000 N   0  0  0  0  0  0  0  0  0  0  0  0
    0.7500    1.2990    0.0000 C   0  0  0  0  0  0  0  0  0  0  0  0
   -0.7500    1.2990    0.0000 C   0  0  0  0  0  0  0  0  0  0  0  0
   -1.5000    0.0000    0.0000 C   0  0  0  0  0  0  0  0  0  0  0  0
   -0.7500   -1.2990    0.0000 C   0  0  0  0  0  0  0  0  0  0  0  0
  1  2  1  0
  2  3  1  0
  3  4  1  0
  4  5  1  0
  5  6  1  0
  6  7  1  0
  5  8  1  0
  8  9  1  0
  9 10  2  0
 10 11  1  0
 11 12  1  0
 11 13  2  0
 13 14  1  0
 14 15  2  0
 14 16  1  0
 16 17  2  0
 17 18  1  0
 18 19  1  0
 19 20  2  0
 20 21  1  0
 21 22  2  0
 22 23  1  0
 23 24  2  0
  7  2  1  0
 15  9  1  0
 24 16  1  0
 24 19  1  0
M  END
>  <activity_comment>  (127) 
active

>  <activity_id>  (127) 
9626229

>  <activity_properties>  (127) 
[]

>  <assay_chembl_id>  (127) 
CHEMBL1963787

>  <assay_description>  (127) 
PUBCHEM_BIOASSAY: Navigating the Kinome. (Class of assay: other) Panel member name: CAMK2B

>  <assay_type>  (127) 
F

>  <bao_endpoint>  (127) 
BAO_0000192

>  <bao_format>  (127) 
BAO_0000019

>  <bao_label>  (127) 
assay format

>  <canonical_smiles>  (127) 
OC1CCC(CC1)Nc2cc(Cl)nc(n2)c3c[nH]c4ncccc34

>  <data_validity_comment>  (127) 
nan

>  <data_validity_description>  (127) 
nan

>  <document_chembl_id>  (127) 
CHEMBL1201862

>  <document_journal>  (127) 
nan

>  <document_year>  (127) 
nan

>  <ligand_efficiency>  (127) 
nan

>  <molecule_pref_name>  (127) 
nan

>  <parent_molecule_chembl_id>  (127) 
CHEMBL1991674

>  <pchembl_value>  (127) 
5.6

>  <potential_duplicate>  (127) 
False

>  <qudt_units>  (127) 
http://www.openphacts.org/units/Nanomolar

>  <record_id>  (127) 
1584098

>  <relation>  (127) 
=

>  <src_id>  (127) 
7

>  <standard_flag>  (127) 
True

>  <standard_relation>  (127) 
=

>  <standard_text_value>  (127) 
nan

>  <standard_type>  (127) 
Ki

>  <standard_units>  (127) 
nM

>  <standard_upper_value>  (127) 
nan

>  <standard_value>  (127) 
2511.89

>  <target_chembl_id>  (127) 
CHEMBL4121

>  <target_organism>  (127) 
Homo sapiens

>  <target_pref_name>  (127) 
CaM kinase II beta

>  <target_tax_id>  (127) 
9606

>  <text_value>  (127) 
nan

>  <toid>  (127) 
nan

>  <type>  (127) 
pKi

>  <units>  (127) 
nan

>  <uo_units>  (127) 
UO_0000065

>  <upper_value>  (127) 
nan

>  <value>  (127) 
5.6

>  <SMILES>  (127) 
OC1CCC(CC1)Nc2cc(Cl)nc(n2)c3c[nH]c4ncccc34

>  <NAME>  (127) 
CHEMBL1991674

>  <FILTER>  (127) 
OK

>  <MW>  (127) 
343.818

>  <LogP>  (127) 
3.3887

>  <HBD>  (127) 
3

>  <HBA>  (127) 
5

>  <TPSA>  (127) 
86.72

>  <Label>  (127) 
CAMK2B

$$$$
CHEMBL1982711
     RDKit          2D

 19 21  0  0  0  0  0  0  0  0999 V2000
   -8.0346   -3.5760    0.0000 N   0  0  0  0  0  0  0  0  0  0  0  0
   -6.9199   -4.5797    0.0000 C   0  0  0  0  0  0  0  0  0  0  0  0
   -7.2317   -6.0469    0.0000 O   0  0  0  0  0  0  0  0  0  0  0  0
   -5.4933   -4.1162    0.0000 C   0  0  0  0  0  0  0  0  0  0  0  0
   -5.1814   -2.6490    0.0000 C   0  0  0  0  0  0  0  0  0  0  0  0
   -3.7548   -2.1855    0.0000 C   0  0  0  0  0  0  0  0  0  0  0  0
   -2.6401   -3.1891    0.0000 C   0  0  0  0  0  0  0  0  0  0  0  0
   -2.9520   -4.6564    0.0000 C   0  0  0  0  0  0  0  0  0  0  0  0
   -4.3786   -5.1199    0.0000 C   0  0  0  0  0  0  0  0  0  0  0  0
   -1.2135   -2.7256    0.0000 C   0  0  0  0  0  0  0  0  0  0  0  0
    0.0000   -3.6073    0.0000 C   0  0  0  0  0  0  0  0  0  0  0  0
    1.2135   -2.7256    0.0000 N   0  0  0  0  0  0  0  0  0  0  0  0
    0.7500   -1.2990    0.0000 C   0  0  0  0  0  0  0  0  0  0  0  0
    1.5000    0.0000    0.0000 N   0  0  0  0  0  0  0  0  0  0  0  0
    0.7500    1.2990    0.0000 C   0  0  0  0  0  0  0  0  0  0  0  0
   -0.7500    1.2990    0.0000 C   0  0  0  0  0  0  0  0  0  0  0  0
   -1.5000    0.0000    0.0000 C   0  0  0  0  0  0  0  0  0  0  0  0
   -3.0000    0.0000    0.0000 Cl  0  0  0  0  0  0  0  0  0  0  0  0
   -0.7500   -1.2990    0.0000 C   0  0  0  0  0  0  0  0  0  0  0  0
  1  2  1  0
  2  3  2  0
  2  4  1  0
  4  5  2  0
  5  6  1  0
  6  7  2  0
  7  8  1  0
  8  9  2  0
  7 10  1  0
 10 11  2  0
 11 12  1  0
 12 13  1  0
 13 14  2  0
 14 15  1  0
 15 16  2  0
 16 17  1  0
 17 18  1  0
 17 19  2  0
  9  4  1  0
 19 10  1  0
 19 13  1  0
M  END
>  <activity_comment>  (128) 
active

>  <activity_id>  (128) 
9626230

>  <activity_properties>  (128) 
[]

>  <assay_chembl_id>  (128) 
CHEMBL1963787

>  <assay_description>  (128) 
PUBCHEM_BIOASSAY: Navigating the Kinome. (Class of assay: other) Panel member name: CAMK2B

>  <assay_type>  (128) 
F

>  <bao_endpoint>  (128) 
BAO_0000192

>  <bao_format>  (128) 
BAO_0000019

>  <bao_label>  (128) 
assay format

>  <canonical_smiles>  (128) 
NC(=O)c1ccc(cc1)c2c[nH]c3nccc(Cl)c23

>  <data_validity_comment>  (128) 
nan

>  <data_validity_description>  (128) 
nan

>  <document_chembl_id>  (128) 
CHEMBL1201862

>  <document_journal>  (128) 
nan

>  <document_year>  (128) 
nan

>  <ligand_efficiency>  (128) 
nan

>  <molecule_pref_name>  (128) 
nan

>  <parent_molecule_chembl_id>  (128) 
CHEMBL1982711

>  <pchembl_value>  (128) 
6.5

>  <potential_duplicate>  (128) 
False

>  <qudt_units>  (128) 
http://www.openphacts.org/units/Nanomolar

>  <record_id>  (128) 
1584073

>  <relation>  (128) 
=

>  <src_id>  (128) 
7

>  <standard_flag>  (128) 
True

>  <standard_relation>  (128) 
=

>  <standard_text_value>  (128) 
nan

>  <standard_type>  (128) 
Ki

>  <standard_units>  (128) 
nM

>  <standard_upper_value>  (128) 
nan

>  <standard_value>  (128) 
316.23

>  <target_chembl_id>  (128) 
CHEMBL4121

>  <target_organism>  (128) 
Homo sapiens

>  <target_pref_name>  (128) 
CaM kinase II beta

>  <target_tax_id>  (128) 
9606

>  <text_value>  (128) 
nan

>  <toid>  (128) 
nan

>  <type>  (128) 
pKi

>  <units>  (128) 
nan

>  <uo_units>  (128) 
UO_0000065

>  <upper_value>  (128) 
nan

>  <value>  (128) 
6.5

>  <SMILES>  (128) 
NC(=O)c1ccc(cc1)c2c[nH]c3nccc(Cl)c23

>  <NAME>  (128) 
CHEMBL1982711

>  <FILTER>  (128) 
OK

>  <MW>  (128) 
271.707

>  <LogP>  (128) 
2.9822

>  <HBD>  (128) 
2

>  <HBA>  (128) 
2

>  <TPSA>  (128) 
71.77

>  <Label>  (128) 
CAMK2B

$$$$
CHEMBL1987982
     RDKit          2D

 26 29  0  0  0  0  0  0  0  0999 V2000
    2.2500   -9.0933    0.0000 F   0  0  0  0  0  0  0  0  0  0  0  0
    3.0000   -7.7942    0.0000 C   0  0  0  0  0  0  0  0  0  0  0  0
    4.2990   -8.5442    0.0000 F   0  0  0  0  0  0  0  0  0  0  0  0
    1.7010   -7.0442    0.0000 F   0  0  0  0  0  0  0  0  0  0  0  0
    3.7500   -6.4952    0.0000 O   0  0  0  0  0  0  0  0  0  0  0  0
    3.0000   -5.1962    0.0000 C   0  0  0  0  0  0  0  0  0  0  0  0
    1.5000   -5.1962    0.0000 C   0  0  0  0  0  0  0  0  0  0  0  0
    0.7500   -3.8971    0.0000 C   0  0  0  0  0  0  0  0  0  0  0  0
    1.5000   -2.5981    0.0000 C   0  0  0  0  0  0  0  0  0  0  0  0
    3.0000   -2.5981    0.0000 C   0  0  0  0  0  0  0  0  0  0  0  0
    3.7500   -3.8971    0.0000 C   0  0  0  0  0  0  0  0  0  0  0  0
    0.7500   -1.2990    0.0000 C   0  0  0  0  0  0  0  0  0  0  0  0
    1.5000    0.0000    0.0000 C   0  0  0  0  0  0  0  0  0  0  0  0
    0.7500    1.2990    0.0000 C   0  0  0  0  0  0  0  0  0  0  0  0
   -0.7500    1.2990    0.0000 C   0  0  0  0  0  0  0  0  0  0  0  0
   -1.7537    2.4138    0.0000 N   0  0  0  0  0  0  0  0  0  0  0  0
   -3.1240    1.8037    0.0000 C   0  0  0  0  0  0  0  0  0  0  0  0
   -2.9672    0.3119    0.0000 C   0  0  0  0  0  0  0  0  0  0  0  0
   -4.0819   -0.6918    0.0000 C   0  0  0  0  0  0  0  0  0  0  0  0
   -5.5085   -0.2283    0.0000 C   0  0  0  0  0  0  0  0  0  0  0  0
   -6.6232   -1.2320    0.0000 C   0  0  0  0  0  0  0  0  0  0  0  0
   -6.3114   -2.6992    0.0000 N   0  0  0  0  0  0  0  0  0  0  0  0
   -4.8848   -3.1627    0.0000 C   0  0  0  0  0  0  0  0  0  0  0  0
   -3.7701   -2.1590    0.0000 C   0  0  0  0  0  0  0  0  0  0  0  0
   -1.5000    0.0000    0.0000 C   0  0  0  0  0  0  0  0  0  0  0  0
   -0.7500   -1.2990    0.0000 C   0  0  0  0  0  0  0  0  0  0  0  0
  1  2  1  0
  2  3  1  0
  2  4  1  0
  2  5  1  0
  5  6  1  0
  6  7  2  0
  7  8  1  0
  8  9  2  0
  9 10  1  0
 10 11  2  0
  9 12  1  0
 12 13  2  0
 13 14  1  0
 14 15  2  0
 15 16  1  0
 16 17  1  0
 17 18  2  0
 18 19  1  0
 19 20  2  0
 20 21  1  0
 21 22  1  0
 22 23  1  0
 23 24  1  0
 18 25  1  0
 25 26  2  0
 11  6  1  0
 26 12  1  0
 25 15  1  0
 24 19  1  0
M  END
>  <activity_comment>  (129) 
active

>  <activity_id>  (129) 
9626231

>  <activity_properties>  (129) 
[]

>  <assay_chembl_id>  (129) 
CHEMBL1963787

>  <assay_description>  (129) 
PUBCHEM_BIOASSAY: Navigating the Kinome. (Class of assay: other) Panel member name: CAMK2B

>  <assay_type>  (129) 
F

>  <bao_endpoint>  (129) 
BAO_0000192

>  <bao_format>  (129) 
BAO_0000019

>  <bao_label>  (129) 
assay format

>  <canonical_smiles>  (129) 
FC(F)(F)Oc1ccc(cc1)c2ccc3[nH]cc(C4=CCNCC4)c3c2

>  <data_validity_comment>  (129) 
nan

>  <data_validity_description>  (129) 
nan

>  <document_chembl_id>  (129) 
CHEMBL1201862

>  <document_journal>  (129) 
nan

>  <document_year>  (129) 
nan

>  <ligand_efficiency>  (129) 
nan

>  <molecule_pref_name>  (129) 
nan

>  <parent_molecule_chembl_id>  (129) 
CHEMBL1987982

>  <pchembl_value>  (129) 
5.6

>  <potential_duplicate>  (129) 
False

>  <qudt_units>  (129) 
http://www.openphacts.org/units/Nanomolar

>  <record_id>  (129) 
1585361

>  <relation>  (129) 
=

>  <src_id>  (129) 
7

>  <standard_flag>  (129) 
True

>  <standard_relation>  (129) 
=

>  <standard_text_value>  (129) 
nan

>  <standard_type>  (129) 
Ki

>  <standard_units>  (129) 
nM

>  <standard_upper_value>  (129) 
nan

>  <standard_value>  (129) 
2511.89

>  <target_chembl_id>  (129) 
CHEMBL4121

>  <target_organism>  (129) 
Homo sapiens

>  <target_pref_name>  (129) 
CaM kinase II beta

>  <target_tax_id>  (129) 
9606

>  <text_value>  (129) 
nan

>  <toid>  (129) 
nan

>  <type>  (129) 
pKi

>  <units>  (129) 
nan

>  <uo_units>  (129) 
UO_0000065

>  <upper_value>  (129) 
nan

>  <value>  (129) 
5.6

>  <SMILES>  (129) 
FC(F)(F)Oc1ccc(cc1)c2ccc3[nH]cc(C4=CCNCC4)c3c2

>  <NAME>  (129) 
CHEMBL1987982

>  <FILTER>  (129) 
OK

>  <MW>  (129) 
358.363

>  <LogP>  (129) 
5.1102

>  <HBD>  (129) 
2

>  <HBA>  (129) 
2

>  <TPSA>  (129) 
37.05

>  <Label>  (129) 
CAMK2B

$$$$
CHEMBL1998829
     RDKit          2D

 25 28  0  0  0  0  0  0  0  0999 V2000
    3.7500   -9.0933    0.0000 Cl  0  0  0  0  0  0  0  0  0  0  0  0
    3.0000   -7.7942    0.0000 C   0  0  0  0  0  0  0  0  0  0  0  0
    1.5000   -7.7942    0.0000 C   0  0  0  0  0  0  0  0  0  0  0  0
    0.7500   -6.4952    0.0000 C   0  0  0  0  0  0  0  0  0  0  0  0
    1.5000   -5.1962    0.0000 C   0  0  0  0  0  0  0  0  0  0  0  0
    3.0000   -5.1962    0.0000 C   0  0  0  0  0  0  0  0  0  0  0  0
    3.7500   -6.4952    0.0000 C   0  0  0  0  0  0  0  0  0  0  0  0
    0.7500   -3.8971    0.0000 C   0  0  0  0  0  0  0  0  0  0  0  0
   -0.7500   -3.8971    0.0000 O   0  0  0  0  0  0  0  0  0  0  0  0
    1.5000   -2.5981    0.0000 N   0  0  0  0  0  0  0  0  0  0  0  0
    0.7500   -1.2990    0.0000 C   0  0  0  0  0  0  0  0  0  0  0  0
    1.5000    0.0000    0.0000 C   0  0  0  0  0  0  0  0  0  0  0  0
    0.7500    1.2990    0.0000 N   0  0  0  0  0  0  0  0  0  0  0  0
   -0.7500    1.2990    0.0000 C   0  0  0  0  0  0  0  0  0  0  0  0
   -1.7537    2.4138    0.0000 N   0  0  0  0  0  0  0  0  0  0  0  0
   -3.1240    1.8037    0.0000 C   0  0  0  0  0  0  0  0  0  0  0  0
   -2.9672    0.3119    0.0000 C   0  0  0  0  0  0  0  0  0  0  0  0
   -4.0819   -0.6918    0.0000 C   0  0  0  0  0  0  0  0  0  0  0  0
   -5.5085   -0.2283    0.0000 C   0  0  0  0  0  0  0  0  0  0  0  0
   -6.6232   -1.2320    0.0000 C   0  0  0  0  0  0  0  0  0  0  0  0
   -6.3114   -2.6992    0.0000 C   0  0  0  0  0  0  0  0  0  0  0  0
   -4.8848   -3.1627    0.0000 C   0  0  0  0  0  0  0  0  0  0  0  0
   -3.7701   -2.1590    0.0000 C   0  0  0  0  0  0  0  0  0  0  0  0
   -1.5000    0.0000    0.0000 C   0  0  0  0  0  0  0  0  0  0  0  0
   -0.7500   -1.2990    0.0000 C   0  0  0  0  0  0  0  0  0  0  0  0
  1  2  1  0
  2  3  2  0
  3  4  1  0
  4  5  2  0
  5  6  1  0
  6  7  2  0
  5  8  1  0
  8  9  2  0
  8 10  1  0
 10 11  1  0
 11 12  2  0
 12 13  1  0
 13 14  2  0
 14 15  1  0
 15 16  1  0
 16 17  2  0
 17 18  1  0
 18 19  2  0
 19 20  1  0
 20 21  2  0
 21 22  1  0
 22 23  2  0
 17 24  1  0
 24 25  2  0
  7  2  1  0
 25 11  1  0
 24 14  1  0
 23 18  1  0
M  END
>  <activity_comment>  (130) 
active

>  <activity_id>  (130) 
9626232

>  <activity_properties>  (130) 
[]

>  <assay_chembl_id>  (130) 
CHEMBL1963787

>  <assay_description>  (130) 
PUBCHEM_BIOASSAY: Navigating the Kinome. (Class of assay: other) Panel member name: CAMK2B

>  <assay_type>  (130) 
F

>  <bao_endpoint>  (130) 
BAO_0000192

>  <bao_format>  (130) 
BAO_0000019

>  <bao_label>  (130) 
assay format

>  <canonical_smiles>  (130) 
Clc1ccc(cc1)C(=O)Nc2cnc3[nH]cc(c4ccccc4)c3c2

>  <data_validity_comment>  (130) 
nan

>  <data_validity_description>  (130) 
nan

>  <document_chembl_id>  (130) 
CHEMBL1201862

>  <document_journal>  (130) 
nan

>  <document_year>  (130) 
nan

>  <ligand_efficiency>  (130) 
nan

>  <molecule_pref_name>  (130) 
nan

>  <parent_molecule_chembl_id>  (130) 
CHEMBL1998829

>  <pchembl_value>  (130) 
5.5

>  <potential_duplicate>  (130) 
False

>  <qudt_units>  (130) 
http://www.openphacts.org/units/Nanomolar

>  <record_id>  (130) 
1584095

>  <relation>  (130) 
=

>  <src_id>  (130) 
7

>  <standard_flag>  (130) 
True

>  <standard_relation>  (130) 
=

>  <standard_text_value>  (130) 
nan

>  <standard_type>  (130) 
Ki

>  <standard_units>  (130) 
nM

>  <standard_upper_value>  (130) 
nan

>  <standard_value>  (130) 
3162.28

>  <target_chembl_id>  (130) 
CHEMBL4121

>  <target_organism>  (130) 
Homo sapiens

>  <target_pref_name>  (130) 
CaM kinase II beta

>  <target_tax_id>  (130) 
9606

>  <text_value>  (130) 
nan

>  <toid>  (130) 
nan

>  <type>  (130) 
pKi

>  <units>  (130) 
nan

>  <uo_units>  (130) 
UO_0000065

>  <upper_value>  (130) 
nan

>  <value>  (130) 
5.5

>  <SMILES>  (130) 
Clc1ccc(cc1)C(=O)Nc2cnc3[nH]cc(c4ccccc4)c3c2

>  <NAME>  (130) 
CHEMBL1998829

>  <FILTER>  (130) 
OK

>  <MW>  (130) 
347.805

>  <LogP>  (130) 
5.1356

>  <HBD>  (130) 
2

>  <HBA>  (130) 
2

>  <TPSA>  (130) 
57.78

>  <Label>  (130) 
CAMK2B

$$$$
CHEMBL1981725
     RDKit          2D

 46 52  0  0  0  0  0  0  0  0999 V2000
   -2.6865    9.0888    0.0000 C   0  0  0  0  0  0  0  0  0  0  0  0
   -4.1131    8.6253    0.0000 C   0  0  0  0  0  0  0  0  0  0  0  0
   -4.4249    7.1580    0.0000 N   0  0  0  0  0  0  0  0  0  0  0  0
   -3.3102    6.1544    0.0000 C   0  0  0  0  0  0  0  0  0  0  0  0
   -3.6221    4.6871    0.0000 C   0  0  0  0  0  0  0  0  0  0  0  0
   -5.0487    4.2236    0.0000 N   0  0  0  0  0  0  0  0  0  0  0  0
   -6.1634    5.2273    0.0000 C   0  0  0  0  0  0  0  0  0  0  0  0
   -5.8515    6.6945    0.0000 C   0  0  0  0  0  0  0  0  0  0  0  0
   -5.3605    2.7564    0.0000 C   0  0  0  0  0  0  0  0  0  0  0  0
   -6.7871    2.2929    0.0000 C   0  0  0  0  0  0  0  0  0  0  0  0
   -7.0990    0.8256    0.0000 C   0  0  0  0  0  0  0  0  0  0  0  0
   -5.9843   -0.1781    0.0000 C   0  0  0  0  0  0  0  0  0  0  0  0
   -6.2961   -1.6453    0.0000 N   0  0  0  0  0  0  0  0  0  0  0  0
   -5.1814   -2.6490    0.0000 C   0  0  0  0  0  0  0  0  0  0  0  0
   -5.4933   -4.1162    0.0000 N   0  0  0  0  0  0  0  0  0  0  0  0
   -4.3786   -5.1199    0.0000 C   0  0  0  0  0  0  0  0  0  0  0  0
   -2.9520   -4.6564    0.0000 C   0  0  0  0  0  0  0  0  0  0  0  0
   -2.6401   -3.1891    0.0000 C   0  0  0  0  0  0  0  0  0  0  0  0
   -3.7548   -2.1855    0.0000 N   0  0  0  0  0  0  0  0  0  0  0  0
   -1.2135   -2.7256    0.0000 C   0  0  0  0  0  0  0  0  0  0  0  0
   -0.0000   -3.6073    0.0000 C   0  0  0  0  0  0  0  0  0  0  0  0
    1.2135   -2.7256    0.0000 N   0  0  0  0  0  0  0  0  0  0  0  0
    0.7500   -1.2990    0.0000 C   0  0  0  0  0  0  0  0  0  0  0  0
    1.5000    0.0000    0.0000 C   0  0  0  0  0  0  0  0  0  0  0  0
    0.7500    1.2990    0.0000 C   0  0  0  0  0  0  0  0  0  0  0  0
   -0.7500    1.2990    0.0000 C   0  0  0  0  0  0  0  0  0  0  0  0
   -1.5000    0.0000    0.0000 C   0  0  0  0  0  0  0  0  0  0  0  0
   -0.7500   -1.2990    0.0000 N   0  0  0  0  0  0  0  0  0  0  0  0
   -0.0000   -5.1073    0.0000 C   0  0  0  0  0  0  0  0  0  0  0  0
   -1.2990   -5.8573    0.0000 C   0  0  0  0  0  0  0  0  0  0  0  0
   -1.2990   -7.3573    0.0000 C   0  0  0  0  0  0  0  0  0  0  0  0
   -0.0000   -8.1073    0.0000 C   0  0  0  0  0  0  0  0  0  0  0  0
    1.2990   -7.3573    0.0000 C   0  0  0  0  0  0  0  0  0  0  0  0
    1.2990   -5.8573    0.0000 C   0  0  0  0  0  0  0  0  0  0  0  0
    2.5981   -8.1073    0.0000 C   0  0  0  0  0  0  0  0  0  0  0  0
    3.8971   -7.3573    0.0000 O   0  0  0  0  0  0  0  0  0  0  0  0
    2.5981   -9.6073    0.0000 N   0  0  0  0  0  0  0  0  0  0  0  0
    3.8971  -10.3573    0.0000 C   0  0  0  0  0  0  0  0  0  0  0  0
    3.8971  -11.8573    0.0000 C   0  0  0  0  0  0  0  0  0  0  0  0
    5.1962  -12.6073    0.0000 C   0  0  0  0  0  0  0  0  0  0  0  0
    6.4952  -11.8573    0.0000 C   0  0  0  0  0  0  0  0  0  0  0  0
    6.4952  -10.3573    0.0000 C   0  0  0  0  0  0  0  0  0  0  0  0
    5.1962   -9.6073    0.0000 C   0  0  0  0  0  0  0  0  0  0  0  0
    5.1962   -8.1073    0.0000 F   0  0  0  0  0  0  0  0  0  0  0  0
   -4.5577    0.2855    0.0000 C   0  0  0  0  0  0  0  0  0  0  0  0
   -4.2458    1.7527    0.0000 C   0  0  0  0  0  0  0  0  0  0  0  0
  1  2  1  0
  2  3  1  0
  3  4  1  0
  4  5  1  0
  5  6  1  0
  6  7  1  0
  7  8  1  0
  6  9  1  0
  9 10  2  0
 10 11  1  0
 11 12  2  0
 12 13  1  0
 13 14  1  0
 14 15  2  0
 15 16  1  0
 16 17  2  0
 17 18  1  0
 18 19  2  0
 18 20  1  0
 20 21  2  0
 21 22  1  0
 22 23  2  0
 23 24  1  0
 24 25  2  0
 25 26  1  0
 26 27  2  0
 27 28  1  0
 21 29  1  0
 29 30  2  0
 30 31  1  0
 31 32  2  0
 32 33  1  0
 33 34  2  0
 33 35  1  0
 35 36  2  0
 35 37  1  0
 37 38  1  0
 38 39  2  0
 39 40  1  0
 40 41  2  0
 41 42  1  0
 42 43  2  0
 43 44  1  0
 12 45  1  0
 45 46  2  0
  8  3  1  0
 46  9  1  0
 19 14  1  0
 28 20  1  0
 28 23  1  0
 34 29  1  0
 43 38  1  0
M  END
>  <activity_comment>  (131) 
active

>  <activity_id>  (131) 
9626235

>  <activity_properties>  (131) 
[]

>  <assay_chembl_id>  (131) 
CHEMBL1963787

>  <assay_description>  (131) 
PUBCHEM_BIOASSAY: Navigating the Kinome. (Class of assay: other) Panel member name: CAMK2B

>  <assay_type>  (131) 
F

>  <bao_endpoint>  (131) 
BAO_0000192

>  <bao_format>  (131) 
BAO_0000019

>  <bao_label>  (131) 
assay format

>  <canonical_smiles>  (131) 
CCN1CCN(CC1)c2ccc(Nc3nccc(n3)c4c(nc5ccccn45)c6cccc(c6)C(=O)Nc7ccccc7F)cc2

>  <data_validity_comment>  (131) 
nan

>  <data_validity_description>  (131) 
nan

>  <document_chembl_id>  (131) 
CHEMBL1201862

>  <document_journal>  (131) 
nan

>  <document_year>  (131) 
nan

>  <ligand_efficiency>  (131) 
nan

>  <molecule_pref_name>  (131) 
nan

>  <parent_molecule_chembl_id>  (131) 
CHEMBL1981725

>  <pchembl_value>  (131) 
5.6

>  <potential_duplicate>  (131) 
False

>  <qudt_units>  (131) 
http://www.openphacts.org/units/Nanomolar

>  <record_id>  (131) 
1584300

>  <relation>  (131) 
=

>  <src_id>  (131) 
7

>  <standard_flag>  (131) 
True

>  <standard_relation>  (131) 
=

>  <standard_text_value>  (131) 
nan

>  <standard_type>  (131) 
Ki

>  <standard_units>  (131) 
nM

>  <standard_upper_value>  (131) 
nan

>  <standard_value>  (131) 
2511.89

>  <target_chembl_id>  (131) 
CHEMBL4121

>  <target_organism>  (131) 
Homo sapiens

>  <target_pref_name>  (131) 
CaM kinase II beta

>  <target_tax_id>  (131) 
9606

>  <text_value>  (131) 
nan

>  <toid>  (131) 
nan

>  <type>  (131) 
pKi

>  <units>  (131) 
nan

>  <uo_units>  (131) 
UO_0000065

>  <upper_value>  (131) 
nan

>  <value>  (131) 
5.6

>  <SMILES>  (131) 
CCN1CCN(CC1)c2ccc(Nc3nccc(n3)c4c(nc5ccccn45)c6cccc(c6)C(=O)Nc7ccccc7F)cc2

>  <NAME>  (131) 
CHEMBL1981725

>  <FILTER>  (131) 
OK

>  <MW>  (131) 
612.713

>  <LogP>  (131) 
6.7352

>  <HBD>  (131) 
2

>  <HBA>  (131) 
8

>  <TPSA>  (131) 
90.69

>  <Label>  (131) 
CAMK2B

$$$$
CHEMBL462120
     RDKit          2D

 19 21  0  0  0  0  0  0  0  0999 V2000
    1.5000   -5.1962    0.0000 N   0  0  0  0  0  0  0  0  0  0  0  0
    0.7500   -3.8971    0.0000 C   0  0  0  0  0  0  0  0  0  0  0  0
    1.5000   -2.5981    0.0000 C   0  0  0  0  0  0  0  0  0  0  0  0
    3.0000   -2.5981    0.0000 C   0  0  0  0  0  0  0  0  0  0  0  0
    3.7500   -3.8971    0.0000 C   0  0  0  0  0  0  0  0  0  0  0  0
    5.2500   -3.8971    0.0000 C   0  0  0  0  0  0  0  0  0  0  0  0
    6.0000   -2.5981    0.0000 C   0  0  0  0  0  0  0  0  0  0  0  0
    5.2500   -1.2990    0.0000 C   0  0  0  0  0  0  0  0  0  0  0  0
    3.7500   -1.2990    0.0000 C   0  0  0  0  0  0  0  0  0  0  0  0
    0.7500   -1.2990    0.0000 C   0  0  0  0  0  0  0  0  0  0  0  0
    1.5000    0.0000    0.0000 C   0  0  0  0  0  0  0  0  0  0  0  0
    0.7500    1.2990    0.0000 C   0  0  0  0  0  0  0  0  0  0  0  0
    1.5000    2.5981    0.0000 Cl  0  0  0  0  0  0  0  0  0  0  0  0
   -0.7500    1.2990    0.0000 C   0  0  0  0  0  0  0  0  0  0  0  0
   -1.5000    0.0000    0.0000 C   0  0  0  0  0  0  0  0  0  0  0  0
   -0.7500   -1.2990    0.0000 C   0  0  0  0  0  0  0  0  0  0  0  0
   -1.5000   -2.5981    0.0000 N   0  0  0  0  0  0  0  0  0  0  0  0
   -0.7500   -3.8971    0.0000 C   0  0  0  0  0  0  0  0  0  0  0  0
   -1.5000   -5.1962    0.0000 O   0  0  0  0  0  0  0  0  0  0  0  0
  1  2  1  0
  2  3  2  0
  3  4  1  0
  4  5  2  0
  5  6  1  0
  6  7  2  0
  7  8  1  0
  8  9  2  0
  3 10  1  0
 10 11  2  0
 11 12  1  0
 12 13  1  0
 12 14  2  0
 14 15  1  0
 15 16  2  0
 16 17  1  0
 17 18  1  0
 18 19  2  0
 18  2  1  0
  9  4  1  0
 16 10  1  0
M  END
>  <activity_comment>  (132) 
active

>  <activity_id>  (132) 
9626238

>  <activity_properties>  (132) 
[]

>  <assay_chembl_id>  (132) 
CHEMBL1963787

>  <assay_description>  (132) 
PUBCHEM_BIOASSAY: Navigating the Kinome. (Class of assay: other) Panel member name: CAMK2B

>  <assay_type>  (132) 
F

>  <bao_endpoint>  (132) 
BAO_0000192

>  <bao_format>  (132) 
BAO_0000019

>  <bao_label>  (132) 
assay format

>  <canonical_smiles>  (132) 
NC1=C(c2ccccc2)c3cc(Cl)ccc3NC1=O

>  <data_validity_comment>  (132) 
nan

>  <data_validity_description>  (132) 
nan

>  <document_chembl_id>  (132) 
CHEMBL1201862

>  <document_journal>  (132) 
nan

>  <document_year>  (132) 
nan

>  <ligand_efficiency>  (132) 
nan

>  <molecule_pref_name>  (132) 
nan

>  <parent_molecule_chembl_id>  (132) 
CHEMBL462120

>  <pchembl_value>  (132) 
5.5

>  <potential_duplicate>  (132) 
False

>  <qudt_units>  (132) 
http://www.openphacts.org/units/Nanomolar

>  <record_id>  (132) 
1584334

>  <relation>  (132) 
=

>  <src_id>  (132) 
7

>  <standard_flag>  (132) 
True

>  <standard_relation>  (132) 
=

>  <standard_text_value>  (132) 
nan

>  <standard_type>  (132) 
Ki

>  <standard_units>  (132) 
nM

>  <standard_upper_value>  (132) 
nan

>  <standard_value>  (132) 
3162.28

>  <target_chembl_id>  (132) 
CHEMBL4121

>  <target_organism>  (132) 
Homo sapiens

>  <target_pref_name>  (132) 
CaM kinase II beta

>  <target_tax_id>  (132) 
9606

>  <text_value>  (132) 
nan

>  <toid>  (132) 
nan

>  <type>  (132) 
pKi

>  <units>  (132) 
nan

>  <uo_units>  (132) 
UO_0000065

>  <upper_value>  (132) 
nan

>  <value>  (132) 
5.5

>  <SMILES>  (132) 
NC1=C(c2ccccc2)c3cc(Cl)ccc3NC1=O

>  <NAME>  (132) 
CHEMBL462120

>  <FILTER>  (132) 
OK

>  <MW>  (132) 
270.719

>  <LogP>  (132) 
3.4307

>  <HBD>  (132) 
2

>  <HBA>  (132) 
2

>  <TPSA>  (132) 
58.88

>  <Label>  (132) 
CAMK2B

$$$$
CHEMBL1997839
     RDKit          2D

 30 33  0  0  0  0  0  0  0  0999 V2000
   -5.2500   -6.4952    0.0000 C   0  0  0  0  0  0  0  0  0  0  0  0
   -3.7500   -6.4952    0.0000 C   0  0  0  0  0  0  0  0  0  0  0  0
   -3.0000   -5.1962    0.0000 O   0  0  0  0  0  0  0  0  0  0  0  0
   -1.5000   -5.1962    0.0000 C   0  0  0  0  0  0  0  0  0  0  0  0
   -0.7500   -6.4952    0.0000 O   0  0  0  0  0  0  0  0  0  0  0  0
   -0.7500   -3.8971    0.0000 C   0  0  0  0  0  0  0  0  0  0  0  0
    0.7500   -3.8971    0.0000 C   0  0  0  0  0  0  0  0  0  0  0  0
    1.5000   -2.5981    0.0000 N   0  0  0  0  0  0  0  0  0  0  0  0
    3.0000   -2.5981    0.0000 C   0  0  0  0  0  0  0  0  0  0  0  0
    3.7500   -3.8971    0.0000 C   0  0  0  0  0  0  0  0  0  0  0  0
    5.2500   -3.8971    0.0000 C   0  0  0  0  0  0  0  0  0  0  0  0
    6.0000   -2.5981    0.0000 C   0  0  0  0  0  0  0  0  0  0  0  0
    7.5000   -2.5981    0.0000 O   0  0  0  0  0  0  0  0  0  0  0  0
    5.2500   -1.2990    0.0000 C   0  0  0  0  0  0  0  0  0  0  0  0
    3.7500   -1.2990    0.0000 C   0  0  0  0  0  0  0  0  0  0  0  0
    3.0000    0.0000    0.0000 C   0  0  0  0  0  0  0  0  0  0  0  0
    0.7500   -1.2990    0.0000 C   0  0  0  0  0  0  0  0  0  0  0  0
    1.5000    0.0000    0.0000 C   0  0  0  0  0  0  0  0  0  0  0  0
    0.7500    1.2990    0.0000 C   0  0  0  0  0  0  0  0  0  0  0  0
   -0.7500    1.2990    0.0000 C   0  0  0  0  0  0  0  0  0  0  0  0
   -1.5000    0.0000    0.0000 C   0  0  0  0  0  0  0  0  0  0  0  0
   -0.7500   -1.2990    0.0000 C   0  0  0  0  0  0  0  0  0  0  0  0
   -1.5000   -2.5981    0.0000 C   0  0  0  0  0  0  0  0  0  0  0  0
   -3.0000   -2.5981    0.0000 O   0  0  0  0  0  0  0  0  0  0  0  0
    1.5000    2.5981    0.0000 C   0  0  0  0  0  0  0  0  0  0  0  0
    3.0000    2.5981    0.0000 C   0  0  0  0  0  0  0  0  0  0  0  0
    3.7500    3.8971    0.0000 C   0  0  0  0  0  0  0  0  0  0  0  0
    3.0000    5.1962    0.0000 C   0  0  0  0  0  0  0  0  0  0  0  0
    1.5000    5.1962    0.0000 C   0  0  0  0  0  0  0  0  0  0  0  0
    0.7500    3.8971    0.0000 C   0  0  0  0  0  0  0  0  0  0  0  0
  1  2  1  0
  2  3  1  0
  3  4  1  0
  4  5  2  0
  4  6  1  0
  6  7  2  0
  7  8  1  0
  8  9  1  0
  9 10  2  0
 10 11  1  0
 11 12  2  0
 12 13  1  0
 12 14  1  0
 14 15  2  0
 15 16  1  0
  8 17  1  0
 17 18  2  0
 18 19  1  0
 19 20  2  0
 20 21  1  0
 21 22  2  0
 22 23  1  0
 23 24  2  0
 19 25  1  0
 25 26  2  0
 26 27  1  0
 27 28  2  0
 28 29  1  0
 29 30  2  0
 23  6  1  0
 15  9  1  0
 22 17  1  0
 30 25  1  0
M  END
>  <activity_comment>  (133) 
active

>  <activity_id>  (133) 
9626239

>  <activity_properties>  (133) 
[]

>  <assay_chembl_id>  (133) 
CHEMBL1963787

>  <assay_description>  (133) 
PUBCHEM_BIOASSAY: Navigating the Kinome. (Class of assay: other) Panel member name: CAMK2B

>  <assay_type>  (133) 
F

>  <bao_endpoint>  (133) 
BAO_0000192

>  <bao_format>  (133) 
BAO_0000019

>  <bao_label>  (133) 
assay format

>  <canonical_smiles>  (133) 
CCOC(=O)C1=CN(c2ccc(O)cc2C)c3cc(ccc3C1=O)c4ccccc4

>  <data_validity_comment>  (133) 
nan

>  <data_validity_description>  (133) 
nan

>  <document_chembl_id>  (133) 
CHEMBL1201862

>  <document_journal>  (133) 
nan

>  <document_year>  (133) 
nan

>  <ligand_efficiency>  (133) 
nan

>  <molecule_pref_name>  (133) 
nan

>  <parent_molecule_chembl_id>  (133) 
CHEMBL1997839

>  <pchembl_value>  (133) 
5.3

>  <potential_duplicate>  (133) 
False

>  <qudt_units>  (133) 
http://www.openphacts.org/units/Nanomolar

>  <record_id>  (133) 
1585239

>  <relation>  (133) 
=

>  <src_id>  (133) 
7

>  <standard_flag>  (133) 
True

>  <standard_relation>  (133) 
=

>  <standard_text_value>  (133) 
nan

>  <standard_type>  (133) 
Ki

>  <standard_units>  (133) 
nM

>  <standard_upper_value>  (133) 
nan

>  <standard_value>  (133) 
5011.87

>  <target_chembl_id>  (133) 
CHEMBL4121

>  <target_organism>  (133) 
Homo sapiens

>  <target_pref_name>  (133) 
CaM kinase II beta

>  <target_tax_id>  (133) 
9606

>  <text_value>  (133) 
nan

>  <toid>  (133) 
nan

>  <type>  (133) 
pKi

>  <units>  (133) 
nan

>  <uo_units>  (133) 
UO_0000065

>  <upper_value>  (133) 
nan

>  <value>  (133) 
5.3

>  <SMILES>  (133) 
CCOC(=O)C1=CN(c2ccc(O)cc2C)c3cc(ccc3C1=O)c4ccccc4

>  <NAME>  (133) 
CHEMBL1997839

>  <FILTER>  (133) 
OK

>  <MW>  (133) 
399.446

>  <LogP>  (133) 
4.84842

>  <HBD>  (133) 
1

>  <HBA>  (133) 
5

>  <TPSA>  (133) 
68.53

>  <Label>  (133) 
CAMK2B

$$$$
CHEMBL2007592
     RDKit          2D

 23 27  0  0  0  0  0  0  0  0999 V2000
   -1.6839   -7.2010    0.0000 O   0  0  0  0  0  0  0  0  0  0  0  0
   -1.5271   -5.7092    0.0000 C   0  0  0  0  0  0  0  0  0  0  0  0
   -0.1568   -5.0991    0.0000 N   0  0  0  0  0  0  0  0  0  0  0  0
   -0.0000   -3.6073    0.0000 C   0  0  0  0  0  0  0  0  0  0  0  0
    1.2135   -2.7256    0.0000 S   0  0  0  0  0  0  0  0  0  0  0  0
    0.7500   -1.2990    0.0000 C   0  0  0  0  0  0  0  0  0  0  0  0
    1.5000    0.0000    0.0000 C   0  0  0  0  0  0  0  0  0  0  0  0
    0.7500    1.2990    0.0000 C   0  0  0  0  0  0  0  0  0  0  0  0
   -0.7500    1.2990    0.0000 C   0  0  0  0  0  0  0  0  0  0  0  0
   -1.5000    0.0000    0.0000 C   0  0  0  0  0  0  0  0  0  0  0  0
   -0.7500   -1.2990    0.0000 C   0  0  0  0  0  0  0  0  0  0  0  0
   -1.2135   -2.7256    0.0000 C   0  0  0  0  0  0  0  0  0  0  0  0
   -2.5838   -3.3357    0.0000 C   0  0  0  0  0  0  0  0  0  0  0  0
   -3.9542   -2.7256    0.0000 N   0  0  0  0  0  0  0  0  0  0  0  0
   -4.9579   -3.8403    0.0000 C   0  0  0  0  0  0  0  0  0  0  0  0
   -4.2079   -5.1394    0.0000 N   0  0  0  0  0  0  0  0  0  0  0  0
   -2.7406   -4.8275    0.0000 N   0  0  0  0  0  0  0  0  0  0  0  0
   -6.4496   -3.6835    0.0000 C   0  0  0  0  0  0  0  0  0  0  0  0
   -7.0597   -2.3132    0.0000 C   0  0  0  0  0  0  0  0  0  0  0  0
   -8.5515   -2.1564    0.0000 C   0  0  0  0  0  0  0  0  0  0  0  0
   -9.4332   -3.3700    0.0000 C   0  0  0  0  0  0  0  0  0  0  0  0
   -8.8231   -4.7403    0.0000 C   0  0  0  0  0  0  0  0  0  0  0  0
   -7.3313   -4.8971    0.0000 C   0  0  0  0  0  0  0  0  0  0  0  0
  1  2  2  0
  2  3  1  0
  3  4  1  0
  4  5  1  0
  5  6  1  0
  6  7  1  0
  7  8  1  0
  8  9  1  0
  9 10  1  0
 10 11  1  0
 11 12  1  0
 12 13  1  0
 13 14  2  0
 14 15  1  0
 15 16  2  0
 16 17  1  0
 15 18  1  0
 18 19  2  0
 19 20  1  0
 20 21  2  0
 21 22  1  0
 22 23  2  0
 17  2  1  0
 12  4  2  0
 11  6  2  0
 17 13  1  0
 23 18  1  0
M  END
>  <activity_comment>  (134) 
active

>  <activity_id>  (134) 
9626241

>  <activity_properties>  (134) 
[]

>  <assay_chembl_id>  (134) 
CHEMBL1963787

>  <assay_description>  (134) 
PUBCHEM_BIOASSAY: Navigating the Kinome. (Class of assay: other) Panel member name: CAMK2B

>  <assay_type>  (134) 
F

>  <bao_endpoint>  (134) 
BAO_0000192

>  <bao_format>  (134) 
BAO_0000019

>  <bao_label>  (134) 
assay format

>  <canonical_smiles>  (134) 
O=C1Nc2sc3CCCCc3c2c4nc(nn14)c5ccccc5

>  <data_validity_comment>  (134) 
nan

>  <data_validity_description>  (134) 
nan

>  <document_chembl_id>  (134) 
CHEMBL1201862

>  <document_journal>  (134) 
nan

>  <document_year>  (134) 
nan

>  <ligand_efficiency>  (134) 
nan

>  <molecule_pref_name>  (134) 
nan

>  <parent_molecule_chembl_id>  (134) 
CHEMBL2007592

>  <pchembl_value>  (134) 
5.1

>  <potential_duplicate>  (134) 
False

>  <qudt_units>  (134) 
http://www.openphacts.org/units/Nanomolar

>  <record_id>  (134) 
1584860

>  <relation>  (134) 
=

>  <src_id>  (134) 
7

>  <standard_flag>  (134) 
True

>  <standard_relation>  (134) 
=

>  <standard_text_value>  (134) 
nan

>  <standard_type>  (134) 
Ki

>  <standard_units>  (134) 
nM

>  <standard_upper_value>  (134) 
nan

>  <standard_value>  (134) 
7943.28

>  <target_chembl_id>  (134) 
CHEMBL4121

>  <target_organism>  (134) 
Homo sapiens

>  <target_pref_name>  (134) 
CaM kinase II beta

>  <target_tax_id>  (134) 
9606

>  <text_value>  (134) 
nan

>  <toid>  (134) 
nan

>  <type>  (134) 
pKi

>  <units>  (134) 
nan

>  <uo_units>  (134) 
UO_0000065

>  <upper_value>  (134) 
nan

>  <value>  (134) 
5.1

>  <SMILES>  (134) 
O=C1Nc2sc3CCCCc3c2c4nc(nn14)c5ccccc5

>  <NAME>  (134) 
CHEMBL2007592

>  <FILTER>  (134) 
OK

>  <MW>  (134) 
322.393

>  <LogP>  (134) 
3.1781

>  <HBD>  (134) 
1

>  <HBA>  (134) 
5

>  <TPSA>  (134) 
63.05

>  <Label>  (134) 
CAMK2B

$$$$
CHEMBL1994214
     RDKit          2D

 28 29  0  0  0  0  0  0  0  0999 V2000
    5.2500   -1.2990    0.0000 C   0  0  0  0  0  0  0  0  0  0  0  0
    3.7500   -1.2990    0.0000 C   0  0  0  0  0  0  0  0  0  0  0  0
    3.0000    0.0000    0.0000 N   0  0  0  0  0  0  0  0  0  0  0  0
    1.5000    0.0000    0.0000 C   0  0  0  0  0  0  0  0  0  0  0  0
    0.7500   -1.2990    0.0000 N   0  0  0  0  0  0  0  0  0  0  0  0
   -0.7500   -1.2990    0.0000 C   0  0  0  0  0  0  0  0  0  0  0  0
   -1.5000   -2.5981    0.0000 C   0  0  0  0  0  0  0  0  0  0  0  0
   -1.5000    0.0000    0.0000 C   0  0  0  0  0  0  0  0  0  0  0  0
   -3.0000    0.0000    0.0000 C   0  0  0  0  0  0  0  0  0  0  0  0
   -3.7500    1.2990    0.0000 C   0  0  0  0  0  0  0  0  0  0  0  0
   -5.2500    1.2990    0.0000 C   0  0  0  0  0  0  0  0  0  0  0  0
   -5.2500   -0.2010    0.0000 C   0  0  0  0  0  0  0  0  0  0  0  0
   -5.2500    2.7990    0.0000 C   0  0  0  0  0  0  0  0  0  0  0  0
   -6.7500    1.2990    0.0000 C   0  0  0  0  0  0  0  0  0  0  0  0
   -7.5000    2.5981    0.0000 C   0  0  0  0  0  0  0  0  0  0  0  0
   -9.0000    2.5981    0.0000 C   0  0  0  0  0  0  0  0  0  0  0  0
   -9.7500    1.2990    0.0000 C   0  0  0  0  0  0  0  0  0  0  0  0
   -9.0000    0.0000    0.0000 C   0  0  0  0  0  0  0  0  0  0  0  0
   -7.5000    0.0000    0.0000 C   0  0  0  0  0  0  0  0  0  0  0  0
  -11.2500    1.2990    0.0000 C   0  0  0  0  0  0  0  0  0  0  0  0
  -12.7500    1.2990    0.0000 F   0  0  0  0  0  0  0  0  0  0  0  0
  -11.2500    2.7990    0.0000 F   0  0  0  0  0  0  0  0  0  0  0  0
  -11.2500   -0.2010    0.0000 F   0  0  0  0  0  0  0  0  0  0  0  0
   -0.7500    1.2990    0.0000 C   0  0  0  0  0  0  0  0  0  0  0  0
   -1.5000    2.5981    0.0000 N   0  0  0  0  0  0  0  0  0  0  0  0
   -0.7500    3.8971    0.0000 C   0  0  0  0  0  0  0  0  0  0  0  0
   -1.5000    5.1962    0.0000 C   0  0  0  0  0  0  0  0  0  0  0  0
    0.7500    1.2990    0.0000 N   0  0  0  0  0  0  0  0  0  0  0  0
  1  2  1  0
  2  3  1  0
  3  4  1  0
  4  5  2  0
  5  6  1  0
  6  7  1  0
  6  8  2  0
  8  9  1  0
  9 10  2  3
 10 11  1  0
 11 12  1  0
 11 13  1  0
 11 14  1  0
 14 15  2  0
 15 16  1  0
 16 17  2  0
 17 18  1  0
 18 19  2  0
 17 20  1  0
 20 21  1  0
 20 22  1  0
 20 23  1  0
  8 24  1  0
 24 25  1  0
 25 26  1  0
 26 27  1  0
 24 28  2  0
 28  4  1  0
 19 14  1  0
M  END
>  <activity_comment>  (135) 
active

>  <activity_id>  (135) 
9626246

>  <activity_properties>  (135) 
[]

>  <assay_chembl_id>  (135) 
CHEMBL1963787

>  <assay_description>  (135) 
PUBCHEM_BIOASSAY: Navigating the Kinome. (Class of assay: other) Panel member name: CAMK2B

>  <assay_type>  (135) 
F

>  <bao_endpoint>  (135) 
BAO_0000192

>  <bao_format>  (135) 
BAO_0000019

>  <bao_label>  (135) 
assay format

>  <canonical_smiles>  (135) 
CCNc1nc(C)c(C=CC(C)(C)c2ccc(cc2)C(F)(F)F)c(NCC)n1

>  <data_validity_comment>  (135) 
nan

>  <data_validity_description>  (135) 
nan

>  <document_chembl_id>  (135) 
CHEMBL1201862

>  <document_journal>  (135) 
nan

>  <document_year>  (135) 
nan

>  <ligand_efficiency>  (135) 
nan

>  <molecule_pref_name>  (135) 
nan

>  <parent_molecule_chembl_id>  (135) 
CHEMBL1994214

>  <pchembl_value>  (135) 
5.7

>  <potential_duplicate>  (135) 
False

>  <qudt_units>  (135) 
http://www.openphacts.org/units/Nanomolar

>  <record_id>  (135) 
1585491

>  <relation>  (135) 
=

>  <src_id>  (135) 
7

>  <standard_flag>  (135) 
True

>  <standard_relation>  (135) 
=

>  <standard_text_value>  (135) 
nan

>  <standard_type>  (135) 
Ki

>  <standard_units>  (135) 
nM

>  <standard_upper_value>  (135) 
nan

>  <standard_value>  (135) 
1995.26

>  <target_chembl_id>  (135) 
CHEMBL4121

>  <target_organism>  (135) 
Homo sapiens

>  <target_pref_name>  (135) 
CaM kinase II beta

>  <target_tax_id>  (135) 
9606

>  <text_value>  (135) 
nan

>  <toid>  (135) 
nan

>  <type>  (135) 
pKi

>  <units>  (135) 
nan

>  <uo_units>  (135) 
UO_0000065

>  <upper_value>  (135) 
nan

>  <value>  (135) 
5.7

>  <SMILES>  (135) 
CCNc1nc(C)c(C=CC(C)(C)c2ccc(cc2)C(F)(F)F)c(NCC)n1

>  <NAME>  (135) 
CHEMBL1994214

>  <FILTER>  (135) 
OK

>  <MW>  (135) 
392.469

>  <LogP>  (135) 
5.65842

>  <HBD>  (135) 
2

>  <HBA>  (135) 
4

>  <TPSA>  (135) 
49.84

>  <Label>  (135) 
CAMK2B

$$$$
CHEMBL1965845
     RDKit          2D

 28 31  0  0  0  0  0  0  0  0999 V2000
   -8.1673  -10.4486    0.0000 C   0  0  0  0  0  0  0  0  0  0  0  0
   -7.8555   -8.9814    0.0000 O   0  0  0  0  0  0  0  0  0  0  0  0
   -8.9702   -7.9777    0.0000 C   0  0  0  0  0  0  0  0  0  0  0  0
  -10.3968   -8.4412    0.0000 C   0  0  0  0  0  0  0  0  0  0  0  0
  -11.5115   -7.4375    0.0000 C   0  0  0  0  0  0  0  0  0  0  0  0
  -11.1996   -5.9703    0.0000 C   0  0  0  0  0  0  0  0  0  0  0  0
   -9.7730   -5.5068    0.0000 C   0  0  0  0  0  0  0  0  0  0  0  0
   -8.6583   -6.5105    0.0000 C   0  0  0  0  0  0  0  0  0  0  0  0
   -9.4612   -4.0396    0.0000 C   0  0  0  0  0  0  0  0  0  0  0  0
  -10.5759   -3.0359    0.0000 C   0  0  0  0  0  0  0  0  0  0  0  0
   -8.0346   -3.5760    0.0000 N   0  0  0  0  0  0  0  0  0  0  0  0
   -6.9199   -4.5797    0.0000 C   0  0  0  0  0  0  0  0  0  0  0  0
   -7.2317   -6.0469    0.0000 O   0  0  0  0  0  0  0  0  0  0  0  0
   -5.4933   -4.1162    0.0000 N   0  0  0  0  0  0  0  0  0  0  0  0
   -4.3786   -5.1199    0.0000 C   0  0  0  0  0  0  0  0  0  0  0  0
   -2.9520   -4.6564    0.0000 C   0  0  0  0  0  0  0  0  0  0  0  0
   -2.6401   -3.1891    0.0000 C   0  0  0  0  0  0  0  0  0  0  0  0
   -3.7548   -2.1855    0.0000 C   0  0  0  0  0  0  0  0  0  0  0  0
   -5.1814   -2.6490    0.0000 C   0  0  0  0  0  0  0  0  0  0  0  0
   -1.2135   -2.7256    0.0000 C   0  0  0  0  0  0  0  0  0  0  0  0
    0.0000   -3.6073    0.0000 C   0  0  0  0  0  0  0  0  0  0  0  0
    1.2135   -2.7256    0.0000 N   0  0  0  0  0  0  0  0  0  0  0  0
    0.7500   -1.2990    0.0000 C   0  0  0  0  0  0  0  0  0  0  0  0
    1.5000    0.0000    0.0000 N   0  0  0  0  0  0  0  0  0  0  0  0
    0.7500    1.2990    0.0000 C   0  0  0  0  0  0  0  0  0  0  0  0
   -0.7500    1.2990    0.0000 C   0  0  0  0  0  0  0  0  0  0  0  0
   -1.5000    0.0000    0.0000 C   0  0  0  0  0  0  0  0  0  0  0  0
   -0.7500   -1.2990    0.0000 C   0  0  0  0  0  0  0  0  0  0  0  0
  1  2  1  0
  2  3  1  0
  3  4  2  0
  4  5  1  0
  5  6  2  0
  6  7  1  0
  7  8  2  0
  7  9  1  0
  9 10  1  0
  9 11  1  0
 11 12  1  0
 12 13  2  0
 12 14  1  0
 14 15  1  0
 15 16  1  0
 16 17  1  0
 17 18  2  0
 18 19  1  0
 17 20  1  0
 20 21  2  0
 21 22  1  0
 22 23  1  0
 23 24  2  0
 24 25  1  0
 25 26  2  0
 26 27  1  0
 27 28  2  0
  8  3  1  0
 19 14  1  0
 28 20  1  0
 28 23  1  0
M  END
>  <activity_comment>  (136) 
active

>  <activity_id>  (136) 
9626248

>  <activity_properties>  (136) 
[]

>  <assay_chembl_id>  (136) 
CHEMBL1963787

>  <assay_description>  (136) 
PUBCHEM_BIOASSAY: Navigating the Kinome. (Class of assay: other) Panel member name: CAMK2B

>  <assay_type>  (136) 
F

>  <bao_endpoint>  (136) 
BAO_0000192

>  <bao_format>  (136) 
BAO_0000019

>  <bao_label>  (136) 
assay format

>  <canonical_smiles>  (136) 
COc1cccc(c1)C(C)NC(=O)N2CCC(=CC2)c3c[nH]c4ncccc34

>  <data_validity_comment>  (136) 
nan

>  <data_validity_description>  (136) 
nan

>  <document_chembl_id>  (136) 
CHEMBL1201862

>  <document_journal>  (136) 
nan

>  <document_year>  (136) 
nan

>  <ligand_efficiency>  (136) 
nan

>  <molecule_pref_name>  (136) 
nan

>  <parent_molecule_chembl_id>  (136) 
CHEMBL1965845

>  <pchembl_value>  (136) 
5.1

>  <potential_duplicate>  (136) 
False

>  <qudt_units>  (136) 
http://www.openphacts.org/units/Nanomolar

>  <record_id>  (136) 
1585001

>  <relation>  (136) 
=

>  <src_id>  (136) 
7

>  <standard_flag>  (136) 
True

>  <standard_relation>  (136) 
=

>  <standard_text_value>  (136) 
nan

>  <standard_type>  (136) 
Ki

>  <standard_units>  (136) 
nM

>  <standard_upper_value>  (136) 
nan

>  <standard_value>  (136) 
7943.28

>  <target_chembl_id>  (136) 
CHEMBL4121

>  <target_organism>  (136) 
Homo sapiens

>  <target_pref_name>  (136) 
CaM kinase II beta

>  <target_tax_id>  (136) 
9606

>  <text_value>  (136) 
nan

>  <toid>  (136) 
nan

>  <type>  (136) 
pKi

>  <units>  (136) 
nan

>  <uo_units>  (136) 
UO_0000065

>  <upper_value>  (136) 
nan

>  <value>  (136) 
5.1

>  <SMILES>  (136) 
COc1cccc(c1)C(C)NC(=O)N2CCC(=CC2)c3c[nH]c4ncccc34

>  <NAME>  (136) 
CHEMBL1965845

>  <FILTER>  (136) 
OK

>  <MW>  (136) 
376.46

>  <LogP>  (136) 
4.1314

>  <HBD>  (136) 
2

>  <HBA>  (136) 
3

>  <TPSA>  (136) 
70.25

>  <Label>  (136) 
CAMK2B

$$$$
CHEMBL1990482
     RDKit          2D

 18 20  0  0  0  0  0  0  0  0999 V2000
    3.7500   -1.2990    0.0000 N   0  0  0  0  0  0  0  0  0  0  0  0
    3.0000    0.0000    0.0000 C   0  0  0  0  0  0  0  0  0  0  0  0
    3.7500    1.2990    0.0000 O   0  0  0  0  0  0  0  0  0  0  0  0
    1.5000    0.0000    0.0000 C   0  0  0  0  0  0  0  0  0  0  0  0
    0.7500   -1.2990    0.0000 C   0  0  0  0  0  0  0  0  0  0  0  0
   -0.7500   -1.2990    0.0000 C   0  0  0  0  0  0  0  0  0  0  0  0
   -1.5000    0.0000    0.0000 C   0  0  0  0  0  0  0  0  0  0  0  0
   -0.7500    1.2990    0.0000 C   0  0  0  0  0  0  0  0  0  0  0  0
   -1.2135    2.7256    0.0000 N   0  0  0  0  0  0  0  0  0  0  0  0
   -0.0000    3.6073    0.0000 C   0  0  0  0  0  0  0  0  0  0  0  0
    1.2135    2.7256    0.0000 N   0  0  0  0  0  0  0  0  0  0  0  0
    0.7500    1.2990    0.0000 C   0  0  0  0  0  0  0  0  0  0  0  0
   -0.0000    5.1073    0.0000 C   0  0  0  0  0  0  0  0  0  0  0  0
    1.2990    5.8573    0.0000 C   0  0  0  0  0  0  0  0  0  0  0  0
    1.2990    7.3573    0.0000 C   0  0  0  0  0  0  0  0  0  0  0  0
    0.0000    8.1073    0.0000 N   0  0  0  0  0  0  0  0  0  0  0  0
   -1.2990    7.3573    0.0000 C   0  0  0  0  0  0  0  0  0  0  0  0
   -1.2990    5.8573    0.0000 C   0  0  0  0  0  0  0  0  0  0  0  0
  1  2  1  0
  2  3  2  0
  2  4  1  0
  4  5  2  0
  5  6  1  0
  6  7  2  0
  7  8  1  0
  8  9  1  0
  9 10  1  0
 10 11  2  0
 11 12  1  0
 10 13  1  0
 13 14  2  0
 14 15  1  0
 15 16  2  0
 16 17  1  0
 17 18  2  0
 12  4  1  0
 12  8  2  0
 18 13  1  0
M  END
>  <activity_comment>  (137) 
active

>  <activity_id>  (137) 
9626251

>  <activity_properties>  (137) 
[]

>  <assay_chembl_id>  (137) 
CHEMBL1963787

>  <assay_description>  (137) 
PUBCHEM_BIOASSAY: Navigating the Kinome. (Class of assay: other) Panel member name: CAMK2B

>  <assay_type>  (137) 
F

>  <bao_endpoint>  (137) 
BAO_0000192

>  <bao_format>  (137) 
BAO_0000019

>  <bao_label>  (137) 
assay format

>  <canonical_smiles>  (137) 
NC(=O)c1cccc2[nH]c(nc12)c3ccncc3

>  <data_validity_comment>  (137) 
nan

>  <data_validity_description>  (137) 
nan

>  <document_chembl_id>  (137) 
CHEMBL1201862

>  <document_journal>  (137) 
nan

>  <document_year>  (137) 
nan

>  <ligand_efficiency>  (137) 
nan

>  <molecule_pref_name>  (137) 
nan

>  <parent_molecule_chembl_id>  (137) 
CHEMBL1990482

>  <pchembl_value>  (137) 
5.2

>  <potential_duplicate>  (137) 
False

>  <qudt_units>  (137) 
http://www.openphacts.org/units/Nanomolar

>  <record_id>  (137) 
1584570

>  <relation>  (137) 
=

>  <src_id>  (137) 
7

>  <standard_flag>  (137) 
True

>  <standard_relation>  (137) 
=

>  <standard_text_value>  (137) 
nan

>  <standard_type>  (137) 
Ki

>  <standard_units>  (137) 
nM

>  <standard_upper_value>  (137) 
nan

>  <standard_value>  (137) 
6309.57

>  <target_chembl_id>  (137) 
CHEMBL4121

>  <target_organism>  (137) 
Homo sapiens

>  <target_pref_name>  (137) 
CaM kinase II beta

>  <target_tax_id>  (137) 
9606

>  <text_value>  (137) 
nan

>  <toid>  (137) 
nan

>  <type>  (137) 
pKi

>  <units>  (137) 
nan

>  <uo_units>  (137) 
UO_0000065

>  <upper_value>  (137) 
nan

>  <value>  (137) 
5.2

>  <SMILES>  (137) 
NC(=O)c1cccc2[nH]c(nc12)c3ccncc3

>  <NAME>  (137) 
CHEMBL1990482

>  <FILTER>  (137) 
OK

>  <MW>  (137) 
238.25

>  <LogP>  (137) 
1.7238

>  <HBD>  (137) 
2

>  <HBA>  (137) 
3

>  <TPSA>  (137) 
84.66

>  <Label>  (137) 
CAMK2B

$$$$
CHEMBL220057
     RDKit          2D

 27 30  0  0  0  0  0  0  0  0999 V2000
    3.7500  -14.2894    0.0000 C   0  0  0  0  0  0  0  0  0  0  0  0
    3.0000  -12.9904    0.0000 C   0  0  0  0  0  0  0  0  0  0  0  0
    1.5000  -12.9904    0.0000 C   0  0  0  0  0  0  0  0  0  0  0  0
    0.7500  -11.6913    0.0000 C   0  0  0  0  0  0  0  0  0  0  0  0
    1.5000  -10.3923    0.0000 C   0  0  0  0  0  0  0  0  0  0  0  0
    3.0000  -10.3923    0.0000 C   0  0  0  0  0  0  0  0  0  0  0  0
    3.7500   -9.0933    0.0000 N   0  0  0  0  0  0  0  0  0  0  0  0
    3.0000   -7.7942    0.0000 C   0  0  0  0  0  0  0  0  0  0  0  0
    1.5000   -7.7942    0.0000 O   0  0  0  0  0  0  0  0  0  0  0  0
    3.7500   -6.4952    0.0000 N   0  0  0  0  0  0  0  0  0  0  0  0
    3.0000   -5.1962    0.0000 C   0  0  0  0  0  0  0  0  0  0  0  0
    3.7500   -3.8971    0.0000 C   0  0  0  0  0  0  0  0  0  0  0  0
    3.0000   -2.5981    0.0000 C   0  0  0  0  0  0  0  0  0  0  0  0
    1.5000   -2.5981    0.0000 C   0  0  0  0  0  0  0  0  0  0  0  0
    0.7500   -3.8971    0.0000 C   0  0  0  0  0  0  0  0  0  0  0  0
    1.5000   -5.1962    0.0000 C   0  0  0  0  0  0  0  0  0  0  0  0
    0.7500   -1.2990    0.0000 C   0  0  0  0  0  0  0  0  0  0  0  0
    1.5000    0.0000    0.0000 C   0  0  0  0  0  0  0  0  0  0  0  0
    0.7500    1.2990    0.0000 C   0  0  0  0  0  0  0  0  0  0  0  0
   -0.7500    1.2990    0.0000 C   0  0  0  0  0  0  0  0  0  0  0  0
   -1.5000    0.0000    0.0000 C   0  0  0  0  0  0  0  0  0  0  0  0
   -2.9672   -0.3119    0.0000 N   0  0  0  0  0  0  0  0  0  0  0  0
   -3.1240   -1.8037    0.0000 N   0  0  0  0  0  0  0  0  0  0  0  0
   -1.7537   -2.4138    0.0000 C   0  0  0  0  0  0  0  0  0  0  0  0
   -1.4418   -3.8810    0.0000 N   0  0  0  0  0  0  0  0  0  0  0  0
   -0.7500   -1.2990    0.0000 C   0  0  0  0  0  0  0  0  0  0  0  0
    3.7500  -11.6913    0.0000 C   0  0  0  0  0  0  0  0  0  0  0  0
  1  2  1  0
  2  3  2  0
  3  4  1  0
  4  5  2  0
  5  6  1  0
  6  7  1  0
  7  8  1  0
  8  9  2  0
  8 10  1  0
 10 11  1  0
 11 12  2  0
 12 13  1  0
 13 14  2  0
 14 15  1  0
 15 16  2  0
 14 17  1  0
 17 18  2  0
 18 19  1  0
 19 20  2  0
 20 21  1  0
 21 22  1  0
 22 23  1  0
 23 24  2  0
 24 25  1  0
 24 26  1  0
  6 27  2  0
 27  2  1  0
 16 11  1  0
 26 17  1  0
 26 21  2  0
M  END
>  <activity_comment>  (138) 
active

>  <activity_id>  (138) 
9626258

>  <activity_properties>  (138) 
[]

>  <assay_chembl_id>  (138) 
CHEMBL1963787

>  <assay_description>  (138) 
PUBCHEM_BIOASSAY: Navigating the Kinome. (Class of assay: other) Panel member name: CAMK2B

>  <assay_type>  (138) 
F

>  <bao_endpoint>  (138) 
BAO_0000192

>  <bao_format>  (138) 
BAO_0000019

>  <bao_label>  (138) 
assay format

>  <canonical_smiles>  (138) 
Cc1cccc(NC(=O)Nc2ccc(cc2)c3cccc4[nH]nc(N)c34)c1

>  <data_validity_comment>  (138) 
nan

>  <data_validity_description>  (138) 
nan

>  <document_chembl_id>  (138) 
CHEMBL1201862

>  <document_journal>  (138) 
nan

>  <document_year>  (138) 
nan

>  <ligand_efficiency>  (138) 
nan

>  <molecule_pref_name>  (138) 
nan

>  <parent_molecule_chembl_id>  (138) 
CHEMBL220057

>  <pchembl_value>  (138) 
5.4

>  <potential_duplicate>  (138) 
False

>  <qudt_units>  (138) 
http://www.openphacts.org/units/Nanomolar

>  <record_id>  (138) 
1584215

>  <relation>  (138) 
=

>  <src_id>  (138) 
7

>  <standard_flag>  (138) 
True

>  <standard_relation>  (138) 
=

>  <standard_text_value>  (138) 
nan

>  <standard_type>  (138) 
Ki

>  <standard_units>  (138) 
nM

>  <standard_upper_value>  (138) 
nan

>  <standard_value>  (138) 
3981.07

>  <target_chembl_id>  (138) 
CHEMBL4121

>  <target_organism>  (138) 
Homo sapiens

>  <target_pref_name>  (138) 
CaM kinase II beta

>  <target_tax_id>  (138) 
9606

>  <text_value>  (138) 
nan

>  <toid>  (138) 
nan

>  <type>  (138) 
pKi

>  <units>  (138) 
nan

>  <uo_units>  (138) 
UO_0000065

>  <upper_value>  (138) 
nan

>  <value>  (138) 
5.4

>  <SMILES>  (138) 
Cc1cccc(NC(=O)Nc2ccc(cc2)c3cccc4[nH]nc(N)c34)c1

>  <NAME>  (138) 
CHEMBL220057

>  <FILTER>  (138) 
OK

>  <MW>  (138) 
357.417

>  <LogP>  (138) 
4.76452

>  <HBD>  (138) 
4

>  <HBA>  (138) 
3

>  <TPSA>  (138) 
95.83

>  <Label>  (138) 
CAMK2B

$$$$
CHEMBL1682545
     RDKit          2D

 21 24  0  0  0  0  0  0  0  0999 V2000
   -4.4752    7.7937    0.0000 N   0  0  0  0  0  0  0  0  0  0  0  0
   -3.3605    8.7974    0.0000 C   0  0  0  0  0  0  0  0  0  0  0  0
   -1.9339    8.3339    0.0000 C   0  0  0  0  0  0  0  0  0  0  0  0
   -0.8192    9.3376    0.0000 C   0  0  0  0  0  0  0  0  0  0  0  0
   -1.1311   10.8048    0.0000 C   0  0  0  0  0  0  0  0  0  0  0  0
   -2.5577   11.2683    0.0000 C   0  0  0  0  0  0  0  0  0  0  0  0
   -3.6724   10.2646    0.0000 C   0  0  0  0  0  0  0  0  0  0  0  0
   -4.1634    6.3265    0.0000 C   0  0  0  0  0  0  0  0  0  0  0  0
   -2.7931    5.7164    0.0000 N   0  0  0  0  0  0  0  0  0  0  0  0
   -2.9499    4.2246    0.0000 C   0  0  0  0  0  0  0  0  0  0  0  0
   -4.4171    3.9127    0.0000 C   0  0  0  0  0  0  0  0  0  0  0  0
   -5.1671    5.2118    0.0000 S   0  0  0  0  0  0  0  0  0  0  0  0
   -1.8351    3.2209    0.0000 C   0  0  0  0  0  0  0  0  0  0  0  0
   -0.4086    3.6844    0.0000 C   0  0  0  0  0  0  0  0  0  0  0  0
    0.7062    2.6807    0.0000 C   0  0  0  0  0  0  0  0  0  0  0  0
    0.3943    1.2135    0.0000 C   0  0  0  0  0  0  0  0  0  0  0  0
    1.2760    0.0000    0.0000 N   0  0  0  0  0  0  0  0  0  0  0  0
    0.3943   -1.2135    0.0000 N   0  0  0  0  0  0  0  0  0  0  0  0
   -1.0323   -0.7500    0.0000 C   0  0  0  0  0  0  0  0  0  0  0  0
   -1.0323    0.7500    0.0000 C   0  0  0  0  0  0  0  0  0  0  0  0
   -2.1470    1.7537    0.0000 C   0  0  0  0  0  0  0  0  0  0  0  0
  1  2  1  0
  2  3  2  0
  3  4  1  0
  4  5  2  0
  5  6  1  0
  6  7  2  0
  1  8  1  0
  8  9  2  0
  9 10  1  0
 10 11  2  0
 11 12  1  0
 10 13  1  0
 13 14  2  0
 14 15  1  0
 15 16  2  0
 16 17  1  0
 17 18  1  0
 18 19  2  0
 19 20  1  0
 20 21  2  0
  7  2  1  0
 12  8  1  0
 21 13  1  0
 20 16  1  0
M  END
>  <activity_comment>  (139) 
active

>  <activity_id>  (139) 
9626259

>  <activity_properties>  (139) 
[]

>  <assay_chembl_id>  (139) 
CHEMBL1963787

>  <assay_description>  (139) 
PUBCHEM_BIOASSAY: Navigating the Kinome. (Class of assay: other) Panel member name: CAMK2B

>  <assay_type>  (139) 
F

>  <bao_endpoint>  (139) 
BAO_0000192

>  <bao_format>  (139) 
BAO_0000019

>  <bao_label>  (139) 
assay format

>  <canonical_smiles>  (139) 
N(c1ccccc1)c2nc(cs2)c3ccc4[nH]ncc4c3

>  <data_validity_comment>  (139) 
nan

>  <data_validity_description>  (139) 
nan

>  <document_chembl_id>  (139) 
CHEMBL1201862

>  <document_journal>  (139) 
nan

>  <document_year>  (139) 
nan

>  <ligand_efficiency>  (139) 
nan

>  <molecule_pref_name>  (139) 
nan

>  <parent_molecule_chembl_id>  (139) 
CHEMBL1682545

>  <pchembl_value>  (139) 
5.1

>  <potential_duplicate>  (139) 
False

>  <qudt_units>  (139) 
http://www.openphacts.org/units/Nanomolar

>  <record_id>  (139) 
1584402

>  <relation>  (139) 
=

>  <src_id>  (139) 
7

>  <standard_flag>  (139) 
True

>  <standard_relation>  (139) 
=

>  <standard_text_value>  (139) 
nan

>  <standard_type>  (139) 
Ki

>  <standard_units>  (139) 
nM

>  <standard_upper_value>  (139) 
nan

>  <standard_value>  (139) 
7943.28

>  <target_chembl_id>  (139) 
CHEMBL4121

>  <target_organism>  (139) 
Homo sapiens

>  <target_pref_name>  (139) 
CaM kinase II beta

>  <target_tax_id>  (139) 
9606

>  <text_value>  (139) 
nan

>  <toid>  (139) 
nan

>  <type>  (139) 
pKi

>  <units>  (139) 
nan

>  <uo_units>  (139) 
UO_0000065

>  <upper_value>  (139) 
nan

>  <value>  (139) 
5.1

>  <SMILES>  (139) 
N(c1ccccc1)c2nc(cs2)c3ccc4[nH]ncc4c3

>  <NAME>  (139) 
CHEMBL1682545

>  <FILTER>  (139) 
OK

>  <MW>  (139) 
292.367

>  <LogP>  (139) 
4.43

>  <HBD>  (139) 
2

>  <HBA>  (139) 
4

>  <TPSA>  (139) 
53.6

>  <Label>  (139) 
CAMK2B

$$$$
CHEMBL1964937
     RDKit          2D

 27 30  0  0  0  0  0  0  0  0999 V2000
  -11.1996   -5.9703    0.0000 O   0  0  0  0  0  0  0  0  0  0  0  0
   -9.7730   -5.5068    0.0000 C   0  0  0  0  0  0  0  0  0  0  0  0
   -9.4612   -4.0396    0.0000 C   0  0  0  0  0  0  0  0  0  0  0  0
   -8.0346   -3.5760    0.0000 N   0  0  0  0  0  0  0  0  0  0  0  0
   -6.9199   -4.5797    0.0000 C   0  0  0  0  0  0  0  0  0  0  0  0
   -7.2317   -6.0469    0.0000 O   0  0  0  0  0  0  0  0  0  0  0  0
   -5.4933   -4.1162    0.0000 N   0  0  0  0  0  0  0  0  0  0  0  0
   -4.3786   -5.1199    0.0000 C   0  0  0  0  0  0  0  0  0  0  0  0
   -2.9520   -4.6564    0.0000 C   0  0  0  0  0  0  0  0  0  0  0  0
   -2.6401   -3.1891    0.0000 C   0  0  0  0  0  0  0  0  0  0  0  0
   -3.7548   -2.1855    0.0000 C   0  0  0  0  0  0  0  0  0  0  0  0
   -5.1814   -2.6490    0.0000 C   0  0  0  0  0  0  0  0  0  0  0  0
   -1.2135   -2.7256    0.0000 C   0  0  0  0  0  0  0  0  0  0  0  0
    0.0000   -3.6073    0.0000 C   0  0  0  0  0  0  0  0  0  0  0  0
    1.2135   -2.7256    0.0000 N   0  0  0  0  0  0  0  0  0  0  0  0
    0.7500   -1.2990    0.0000 C   0  0  0  0  0  0  0  0  0  0  0  0
    1.5000    0.0000    0.0000 N   0  0  0  0  0  0  0  0  0  0  0  0
    0.7500    1.2990    0.0000 C   0  0  0  0  0  0  0  0  0  0  0  0
   -0.7500    1.2990    0.0000 C   0  0  0  0  0  0  0  0  0  0  0  0
   -1.5000    0.0000    0.0000 C   0  0  0  0  0  0  0  0  0  0  0  0
   -0.7500   -1.2990    0.0000 C   0  0  0  0  0  0  0  0  0  0  0  0
  -10.5759   -3.0359    0.0000 C   0  0  0  0  0  0  0  0  0  0  0  0
  -10.2640   -1.5686    0.0000 C   0  0  0  0  0  0  0  0  0  0  0  0
  -11.3787   -0.5649    0.0000 C   0  0  0  0  0  0  0  0  0  0  0  0
  -12.8053   -1.0285    0.0000 C   0  0  0  0  0  0  0  0  0  0  0  0
  -13.1172   -2.4957    0.0000 C   0  0  0  0  0  0  0  0  0  0  0  0
  -12.0025   -3.4994    0.0000 C   0  0  0  0  0  0  0  0  0  0  0  0
  1  2  1  0
  2  3  1  0
  3  4  1  0
  4  5  1  0
  5  6  2  0
  5  7  1  0
  7  8  1  0
  8  9  1  0
  9 10  1  0
 10 11  2  0
 11 12  1  0
 10 13  1  0
 13 14  2  0
 14 15  1  0
 15 16  1  0
 16 17  2  0
 17 18  1  0
 18 19  2  0
 19 20  1  0
 20 21  2  0
  3 22  1  0
 22 23  2  0
 23 24  1  0
 24 25  2  0
 25 26  1  0
 26 27  2  0
 12  7  1  0
 21 13  1  0
 21 16  1  0
 27 22  1  0
M  END
>  <activity_comment>  (140) 
active

>  <activity_id>  (140) 
9626264

>  <activity_properties>  (140) 
[]

>  <assay_chembl_id>  (140) 
CHEMBL1963787

>  <assay_description>  (140) 
PUBCHEM_BIOASSAY: Navigating the Kinome. (Class of assay: other) Panel member name: CAMK2B

>  <assay_type>  (140) 
F

>  <bao_endpoint>  (140) 
BAO_0000192

>  <bao_format>  (140) 
BAO_0000019

>  <bao_label>  (140) 
assay format

>  <canonical_smiles>  (140) 
OCC(NC(=O)N1CCC(=CC1)c2c[nH]c3ncccc23)c4ccccc4

>  <data_validity_comment>  (140) 
nan

>  <data_validity_description>  (140) 
nan

>  <document_chembl_id>  (140) 
CHEMBL1201862

>  <document_journal>  (140) 
nan

>  <document_year>  (140) 
nan

>  <ligand_efficiency>  (140) 
nan

>  <molecule_pref_name>  (140) 
nan

>  <parent_molecule_chembl_id>  (140) 
CHEMBL1964937

>  <pchembl_value>  (140) 
5.3

>  <potential_duplicate>  (140) 
False

>  <qudt_units>  (140) 
http://www.openphacts.org/units/Nanomolar

>  <record_id>  (140) 
1584088

>  <relation>  (140) 
=

>  <src_id>  (140) 
7

>  <standard_flag>  (140) 
True

>  <standard_relation>  (140) 
=

>  <standard_text_value>  (140) 
nan

>  <standard_type>  (140) 
Ki

>  <standard_units>  (140) 
nM

>  <standard_upper_value>  (140) 
nan

>  <standard_value>  (140) 
5011.87

>  <target_chembl_id>  (140) 
CHEMBL4121

>  <target_organism>  (140) 
Homo sapiens

>  <target_pref_name>  (140) 
CaM kinase II beta

>  <target_tax_id>  (140) 
9606

>  <text_value>  (140) 
nan

>  <toid>  (140) 
nan

>  <type>  (140) 
pKi

>  <units>  (140) 
nan

>  <uo_units>  (140) 
UO_0000065

>  <upper_value>  (140) 
nan

>  <value>  (140) 
5.3

>  <SMILES>  (140) 
OCC(NC(=O)N1CCC(=CC1)c2c[nH]c3ncccc23)c4ccccc4

>  <NAME>  (140) 
CHEMBL1964937

>  <FILTER>  (140) 
OK

>  <MW>  (140) 
362.433

>  <LogP>  (140) 
3.0952

>  <HBD>  (140) 
3

>  <HBA>  (140) 
3

>  <TPSA>  (140) 
81.25

>  <Label>  (140) 
CAMK2B

$$$$
CHEMBL1682552
     RDKit          2D

 25 29  0  0  0  0  0  0  0  0999 V2000
   -5.9843   -0.1781    0.0000 C   0  0  0  0  0  0  0  0  0  0  0  0
   -4.5577    0.2855    0.0000 C   0  0  0  0  0  0  0  0  0  0  0  0
   -3.4430   -0.7182    0.0000 C   0  0  0  0  0  0  0  0  0  0  0  0
   -3.7548   -2.1855    0.0000 C   0  0  0  0  0  0  0  0  0  0  0  0
   -5.1814   -2.6490    0.0000 C   0  0  0  0  0  0  0  0  0  0  0  0
   -6.2961   -1.6453    0.0000 C   0  0  0  0  0  0  0  0  0  0  0  0
   -2.6401   -3.1891    0.0000 N   0  0  0  0  0  0  0  0  0  0  0  0
   -1.2135   -2.7256    0.0000 C   0  0  0  0  0  0  0  0  0  0  0  0
   -0.0000   -3.6073    0.0000 C   0  0  0  0  0  0  0  0  0  0  0  0
    1.2135   -2.7256    0.0000 N   0  0  0  0  0  0  0  0  0  0  0  0
    0.7500   -1.2990    0.0000 C   0  0  0  0  0  0  0  0  0  0  0  0
    1.5000    0.0000    0.0000 N   0  0  0  0  0  0  0  0  0  0  0  0
    0.7500    1.2990    0.0000 C   0  0  0  0  0  0  0  0  0  0  0  0
   -0.7500    1.2990    0.0000 C   0  0  0  0  0  0  0  0  0  0  0  0
   -1.5000    0.0000    0.0000 C   0  0  0  0  0  0  0  0  0  0  0  0
   -0.7500   -1.2990    0.0000 N   0  0  0  0  0  0  0  0  0  0  0  0
   -0.0000   -5.1073    0.0000 C   0  0  0  0  0  0  0  0  0  0  0  0
    1.2990   -5.8573    0.0000 C   0  0  0  0  0  0  0  0  0  0  0  0
    1.2990   -7.3573    0.0000 C   0  0  0  0  0  0  0  0  0  0  0  0
    0.0000   -8.1073    0.0000 C   0  0  0  0  0  0  0  0  0  0  0  0
   -0.3119   -9.5745    0.0000 N   0  0  0  0  0  0  0  0  0  0  0  0
   -1.8037   -9.7313    0.0000 N   0  0  0  0  0  0  0  0  0  0  0  0
   -2.4138   -8.3610    0.0000 C   0  0  0  0  0  0  0  0  0  0  0  0
   -1.2990   -7.3573    0.0000 C   0  0  0  0  0  0  0  0  0  0  0  0
   -1.2990   -5.8573    0.0000 C   0  0  0  0  0  0  0  0  0  0  0  0
  1  2  1  0
  2  3  1  0
  3  4  1  0
  4  5  1  0
  5  6  1  0
  4  7  1  0
  7  8  1  0
  8  9  2  0
  9 10  1  0
 10 11  2  0
 11 12  1  0
 12 13  2  0
 13 14  1  0
 14 15  2  0
 15 16  1  0
  9 17  1  0
 17 18  2  0
 18 19  1  0
 19 20  2  0
 20 21  1  0
 21 22  1  0
 22 23  2  0
 23 24  1  0
 24 25  2  0
  6  1  1  0
 16  8  1  0
 16 11  1  0
 25 17  1  0
 24 20  1  0
M  END
>  <activity_comment>  (141) 
active

>  <activity_id>  (141) 
9626268

>  <activity_properties>  (141) 
[]

>  <assay_chembl_id>  (141) 
CHEMBL1963787

>  <assay_description>  (141) 
PUBCHEM_BIOASSAY: Navigating the Kinome. (Class of assay: other) Panel member name: CAMK2B

>  <assay_type>  (141) 
F

>  <bao_endpoint>  (141) 
BAO_0000192

>  <bao_format>  (141) 
BAO_0000019

>  <bao_label>  (141) 
assay format

>  <canonical_smiles>  (141) 
C1CCC(CC1)Nc2c(nc3ncccn23)c4ccc5[nH]ncc5c4

>  <data_validity_comment>  (141) 
nan

>  <data_validity_description>  (141) 
nan

>  <document_chembl_id>  (141) 
CHEMBL1201862

>  <document_journal>  (141) 
nan

>  <document_year>  (141) 
nan

>  <ligand_efficiency>  (141) 
nan

>  <molecule_pref_name>  (141) 
nan

>  <parent_molecule_chembl_id>  (141) 
CHEMBL1682552

>  <pchembl_value>  (141) 
5.2

>  <potential_duplicate>  (141) 
False

>  <qudt_units>  (141) 
http://www.openphacts.org/units/Nanomolar

>  <record_id>  (141) 
1584391

>  <relation>  (141) 
=

>  <src_id>  (141) 
7

>  <standard_flag>  (141) 
True

>  <standard_relation>  (141) 
=

>  <standard_text_value>  (141) 
nan

>  <standard_type>  (141) 
Ki

>  <standard_units>  (141) 
nM

>  <standard_upper_value>  (141) 
nan

>  <standard_value>  (141) 
6309.57

>  <target_chembl_id>  (141) 
CHEMBL4121

>  <target_organism>  (141) 
Homo sapiens

>  <target_pref_name>  (141) 
CaM kinase II beta

>  <target_tax_id>  (141) 
9606

>  <text_value>  (141) 
nan

>  <toid>  (141) 
nan

>  <type>  (141) 
pKi

>  <units>  (141) 
nan

>  <uo_units>  (141) 
UO_0000065

>  <upper_value>  (141) 
nan

>  <value>  (141) 
5.2

>  <SMILES>  (141) 
C1CCC(CC1)Nc2c(nc3ncccn23)c4ccc5[nH]ncc5c4

>  <NAME>  (141) 
CHEMBL1682552

>  <FILTER>  (141) 
OK

>  <MW>  (141) 
332.411

>  <LogP>  (141) 
4.0172

>  <HBD>  (141) 
2

>  <HBA>  (141) 
5

>  <TPSA>  (141) 
70.9

>  <Label>  (141) 
CAMK2B

$$$$
CHEMBL2002702
     RDKit          2D

 18 20  0  0  0  0  0  0  0  0999 V2000
   -7.4638   -1.0415    0.0000 C   0  0  0  0  0  0  0  0  0  0  0  0
   -5.9720   -1.1983    0.0000 C   0  0  0  0  0  0  0  0  0  0  0  0
   -4.9684   -0.0836    0.0000 C   0  0  0  0  0  0  0  0  0  0  0  0
   -3.5980   -0.6937    0.0000 C   0  0  0  0  0  0  0  0  0  0  0  0
   -2.2990    0.0563    0.0000 C   0  0  0  0  0  0  0  0  0  0  0  0
   -3.7548   -2.1855    0.0000 C   0  0  0  0  0  0  0  0  0  0  0  0
   -2.6401   -3.1891    0.0000 C   0  0  0  0  0  0  0  0  0  0  0  0
   -1.2135   -2.7256    0.0000 C   0  0  0  0  0  0  0  0  0  0  0  0
    0.0000   -3.6073    0.0000 C   0  0  0  0  0  0  0  0  0  0  0  0
    0.0000   -5.1073    0.0000 O   0  0  0  0  0  0  0  0  0  0  0  0
    1.2135   -2.7256    0.0000 N   0  0  0  0  0  0  0  0  0  0  0  0
    0.7500   -1.2990    0.0000 C   0  0  0  0  0  0  0  0  0  0  0  0
    1.5000    0.0000    0.0000 C   0  0  0  0  0  0  0  0  0  0  0  0
    0.7500    1.2990    0.0000 C   0  0  0  0  0  0  0  0  0  0  0  0
   -0.7500    1.2990    0.0000 C   0  0  0  0  0  0  0  0  0  0  0  0
   -1.5000    0.0000    0.0000 C   0  0  0  0  0  0  0  0  0  0  0  0
   -0.7500   -1.2990    0.0000 C   0  0  0  0  0  0  0  0  0  0  0  0
   -5.2220   -2.4973    0.0000 N   0  0  0  0  0  0  0  0  0  0  0  0
  1  2  1  0
  2  3  2  0
  3  4  1  0
  4  5  1  0
  4  6  2  0
  6  7  1  0
  7  8  2  3
  8  9  1  0
  9 10  2  0
  9 11  1  0
 11 12  1  0
 12 13  2  0
 13 14  1  0
 14 15  2  0
 15 16  1  0
 16 17  2  0
  6 18  1  0
 18  2  1  0
 17  8  1  0
 17 12  1  0
M  END
>  <activity_comment>  (142) 
active

>  <activity_id>  (142) 
9626271

>  <activity_properties>  (142) 
[]

>  <assay_chembl_id>  (142) 
CHEMBL1963787

>  <assay_description>  (142) 
PUBCHEM_BIOASSAY: Navigating the Kinome. (Class of assay: other) Panel member name: CAMK2B

>  <assay_type>  (142) 
F

>  <bao_endpoint>  (142) 
BAO_0000192

>  <bao_format>  (142) 
BAO_0000019

>  <bao_label>  (142) 
assay format

>  <canonical_smiles>  (142) 
Cc1cc(C)c(C=C2C(=O)Nc3ccccc23)[nH]1

>  <data_validity_comment>  (142) 
nan

>  <data_validity_description>  (142) 
nan

>  <document_chembl_id>  (142) 
CHEMBL1201862

>  <document_journal>  (142) 
nan

>  <document_year>  (142) 
nan

>  <ligand_efficiency>  (142) 
nan

>  <molecule_pref_name>  (142) 
nan

>  <parent_molecule_chembl_id>  (142) 
CHEMBL2002702

>  <pchembl_value>  (142) 
5.2

>  <potential_duplicate>  (142) 
False

>  <qudt_units>  (142) 
http://www.openphacts.org/units/Nanomolar

>  <record_id>  (142) 
1584994

>  <relation>  (142) 
=

>  <src_id>  (142) 
7

>  <standard_flag>  (142) 
True

>  <standard_relation>  (142) 
=

>  <standard_text_value>  (142) 
nan

>  <standard_type>  (142) 
Ki

>  <standard_units>  (142) 
nM

>  <standard_upper_value>  (142) 
nan

>  <standard_value>  (142) 
6309.57

>  <target_chembl_id>  (142) 
CHEMBL4121

>  <target_organism>  (142) 
Homo sapiens

>  <target_pref_name>  (142) 
CaM kinase II beta

>  <target_tax_id>  (142) 
9606

>  <text_value>  (142) 
nan

>  <toid>  (142) 
nan

>  <type>  (142) 
pKi

>  <units>  (142) 
nan

>  <uo_units>  (142) 
UO_0000065

>  <upper_value>  (142) 
nan

>  <value>  (142) 
5.2

>  <SMILES>  (142) 
Cc1cc(C)c(C=C2C(=O)Nc3ccccc23)[nH]1

>  <NAME>  (142) 
CHEMBL2002702

>  <FILTER>  (142) 
OK

>  <MW>  (142) 
238.29

>  <LogP>  (142) 
3.12424

>  <HBD>  (142) 
2

>  <HBA>  (142) 
1

>  <TPSA>  (142) 
44.89

>  <Label>  (142) 
CAMK2B

$$$$
CHEMBL1970903
     RDKit          2D

 30 34  0  0  0  0  0  0  0  0999 V2000
   -2.6401   -3.1891    0.0000 C   0  0  0  0  0  0  0  0  0  0  0  0
   -1.2135   -2.7256    0.0000 C   0  0  0  0  0  0  0  0  0  0  0  0
   -0.0000   -3.6073    0.0000 N   0  0  0  0  0  0  0  0  0  0  0  0
    1.2135   -2.7256    0.0000 N   0  0  0  0  0  0  0  0  0  0  0  0
    0.7500   -1.2990    0.0000 C   0  0  0  0  0  0  0  0  0  0  0  0
    1.5000    0.0000    0.0000 C   0  0  0  0  0  0  0  0  0  0  0  0
    0.7500    1.2990    0.0000 C   0  0  0  0  0  0  0  0  0  0  0  0
   -0.7500    1.2990    0.0000 C   0  0  0  0  0  0  0  0  0  0  0  0
   -1.5000    0.0000    0.0000 C   0  0  0  0  0  0  0  0  0  0  0  0
   -0.7500   -1.2990    0.0000 C   0  0  0  0  0  0  0  0  0  0  0  0
   -1.5000    2.5981    0.0000 C   0  0  0  0  0  0  0  0  0  0  0  0
   -0.7500    3.8971    0.0000 C   0  0  0  0  0  0  0  0  0  0  0  0
   -1.5000    5.1962    0.0000 N   0  0  0  0  0  0  0  0  0  0  0  0
   -3.0000    5.1962    0.0000 C   0  0  0  0  0  0  0  0  0  0  0  0
   -3.7500    3.8971    0.0000 C   0  0  0  0  0  0  0  0  0  0  0  0
   -5.2500    3.8971    0.0000 O   0  0  0  0  0  0  0  0  0  0  0  0
   -6.0000    5.1962    0.0000 C   0  0  0  0  0  0  0  0  0  0  0  0
   -7.5000    5.1962    0.0000 C   0  0  0  0  0  0  0  0  0  0  0  0
   -8.2500    3.8971    0.0000 N   0  0  0  0  0  0  0  0  0  0  0  0
   -8.2500    6.4952    0.0000 C   0  0  0  0  0  0  0  0  0  0  0  0
   -9.7500    6.4952    0.0000 C   0  0  0  0  0  0  0  0  0  0  0  0
  -10.6317    5.2817    0.0000 C   0  0  0  0  0  0  0  0  0  0  0  0
  -12.0583    5.7452    0.0000 N   0  0  0  0  0  0  0  0  0  0  0  0
  -12.0583    7.2452    0.0000 C   0  0  0  0  0  0  0  0  0  0  0  0
  -13.1730    8.2489    0.0000 C   0  0  0  0  0  0  0  0  0  0  0  0
  -12.8611    9.7161    0.0000 C   0  0  0  0  0  0  0  0  0  0  0  0
  -11.4345   10.1796    0.0000 C   0  0  0  0  0  0  0  0  0  0  0  0
  -10.3198    9.1759    0.0000 C   0  0  0  0  0  0  0  0  0  0  0  0
  -10.6317    7.7087    0.0000 C   0  0  0  0  0  0  0  0  0  0  0  0
   -3.0000    2.5981    0.0000 C   0  0  0  0  0  0  0  0  0  0  0  0
  1  2  1  0
  2  3  2  0
  3  4  1  0
  4  5  1  0
  5  6  2  0
  6  7  1  0
  7  8  2  0
  8  9  1  0
  9 10  2  0
  8 11  1  0
 11 12  2  0
 12 13  1  0
 13 14  2  0
 14 15  1  0
 15 16  1  0
 16 17  1  0
 17 18  1  0
 18 19  1  0
 18 20  1  0
 20 21  1  0
 21 22  2  0
 22 23  1  0
 23 24  1  0
 24 25  2  0
 25 26  1  0
 26 27  2  0
 27 28  1  0
 28 29  2  0
 15 30  2  0
 10  2  1  0
 10  5  1  0
 30 11  1  0
 29 21  1  0
 29 24  1  0
M  END
>  <activity_comment>  (143) 
active

>  <activity_id>  (143) 
9626272

>  <activity_properties>  (143) 
[]

>  <assay_chembl_id>  (143) 
CHEMBL1963787

>  <assay_description>  (143) 
PUBCHEM_BIOASSAY: Navigating the Kinome. (Class of assay: other) Panel member name: CAMK2B

>  <assay_type>  (143) 
F

>  <bao_endpoint>  (143) 
BAO_0000192

>  <bao_format>  (143) 
BAO_0000019

>  <bao_label>  (143) 
assay format

>  <canonical_smiles>  (143) 
Cc1n[nH]c2ccc(cc12)c3cncc(OCC(N)Cc4c[nH]c5ccccc45)c3

>  <data_validity_comment>  (143) 
nan

>  <data_validity_description>  (143) 
nan

>  <document_chembl_id>  (143) 
CHEMBL1201862

>  <document_journal>  (143) 
nan

>  <document_year>  (143) 
nan

>  <ligand_efficiency>  (143) 
nan

>  <molecule_pref_name>  (143) 
nan

>  <parent_molecule_chembl_id>  (143) 
CHEMBL1970903

>  <pchembl_value>  (143) 
7.0

>  <potential_duplicate>  (143) 
False

>  <qudt_units>  (143) 
http://www.openphacts.org/units/Nanomolar

>  <record_id>  (143) 
1584366

>  <relation>  (143) 
=

>  <src_id>  (143) 
7

>  <standard_flag>  (143) 
True

>  <standard_relation>  (143) 
=

>  <standard_text_value>  (143) 
nan

>  <standard_type>  (143) 
Ki

>  <standard_units>  (143) 
nM

>  <standard_upper_value>  (143) 
nan

>  <standard_value>  (143) 
100.0

>  <target_chembl_id>  (143) 
CHEMBL4121

>  <target_organism>  (143) 
Homo sapiens

>  <target_pref_name>  (143) 
CaM kinase II beta

>  <target_tax_id>  (143) 
9606

>  <text_value>  (143) 
nan

>  <toid>  (143) 
nan

>  <type>  (143) 
pKi

>  <units>  (143) 
nan

>  <uo_units>  (143) 
UO_0000065

>  <upper_value>  (143) 
nan

>  <value>  (143) 
7.0

>  <SMILES>  (143) 
Cc1n[nH]c2ccc(cc12)c3cncc(OCC(N)Cc4c[nH]c5ccccc45)c3

>  <NAME>  (143) 
CHEMBL1970903

>  <FILTER>  (143) 
OK

>  <MW>  (143) 
397.482

>  <LogP>  (143) 
4.36342

>  <HBD>  (143) 
3

>  <HBA>  (143) 
4

>  <TPSA>  (143) 
92.61

>  <Label>  (143) 
CAMK2B

$$$$
CHEMBL387971
     RDKit          2D

 34 38  0  0  0  0  0  0  0  0999 V2000
   -5.0653  -18.3057    0.0000 C   0  0  0  0  0  0  0  0  0  0  0  0
   -3.7662  -17.5557    0.0000 O   0  0  0  0  0  0  0  0  0  0  0  0
   -3.7662  -16.0557    0.0000 C   0  0  0  0  0  0  0  0  0  0  0  0
   -2.4672  -15.3057    0.0000 C   0  0  0  0  0  0  0  0  0  0  0  0
   -2.4672  -13.8057    0.0000 O   0  0  0  0  0  0  0  0  0  0  0  0
   -1.1682  -13.0557    0.0000 C   0  0  0  0  0  0  0  0  0  0  0  0
   -1.1682  -11.5557    0.0000 C   0  0  0  0  0  0  0  0  0  0  0  0
   -1.1682  -10.0557    0.0000 C   0  0  0  0  0  0  0  0  0  0  0  0
   -1.1682   -8.5557    0.0000 C   0  0  0  0  0  0  0  0  0  0  0  0
    0.0454   -7.6740    0.0000 C   0  0  0  0  0  0  0  0  0  0  0  0
   -0.4182   -6.2474    0.0000 C   0  0  0  0  0  0  0  0  0  0  0  0
   -1.9182   -6.2474    0.0000 C   0  0  0  0  0  0  0  0  0  0  0  0
   -2.3817   -7.6740    0.0000 S   0  0  0  0  0  0  0  0  0  0  0  0
    0.4635   -5.0339    0.0000 C   0  0  0  0  0  0  0  0  0  0  0  0
    1.9635   -5.0339    0.0000 N   0  0  0  0  0  0  0  0  0  0  0  0
    2.4271   -3.6073    0.0000 N   0  0  0  0  0  0  0  0  0  0  0  0
    1.2135   -2.7256    0.0000 C   0  0  0  0  0  0  0  0  0  0  0  0
    0.7500   -1.2990    0.0000 C   0  0  0  0  0  0  0  0  0  0  0  0
    1.5000    0.0000    0.0000 C   0  0  0  0  0  0  0  0  0  0  0  0
    0.7500    1.2990    0.0000 C   0  0  0  0  0  0  0  0  0  0  0  0
   -0.7500    1.2990    0.0000 C   0  0  0  0  0  0  0  0  0  0  0  0
   -1.5000    2.5981    0.0000 C   0  0  0  0  0  0  0  0  0  0  0  0
   -0.7500    3.8971    0.0000 N   0  0  0  0  0  0  0  0  0  0  0  0
    0.7500    3.8971    0.0000 C   0  0  0  0  0  0  0  0  0  0  0  0
    1.5000    5.1962    0.0000 C   0  0  0  0  0  0  0  0  0  0  0  0
    0.7500    6.4952    0.0000 N   0  0  0  0  0  0  0  0  0  0  0  0
    1.5000    7.7942    0.0000 C   0  0  0  0  0  0  0  0  0  0  0  0
   -0.7500    6.4952    0.0000 C   0  0  0  0  0  0  0  0  0  0  0  0
   -1.5000    5.1962    0.0000 C   0  0  0  0  0  0  0  0  0  0  0  0
   -1.5000    0.0000    0.0000 C   0  0  0  0  0  0  0  0  0  0  0  0
   -0.7500   -1.2990    0.0000 C   0  0  0  0  0  0  0  0  0  0  0  0
   -1.2135   -2.7256    0.0000 C   0  0  0  0  0  0  0  0  0  0  0  0
   -2.6401   -3.1891    0.0000 O   0  0  0  0  0  0  0  0  0  0  0  0
    0.0000   -3.6073    0.0000 C   0  0  0  0  0  0  0  0  0  0  0  0
  1  2  1  0
  2  3  1  0
  3  4  1  0
  4  5  1  0
  5  6  1  0
  6  7  1  0
  7  8  3  0
  8  9  1  0
  9 10  2  0
 10 11  1  0
 11 12  2  0
 12 13  1  0
 11 14  1  0
 14 15  2  0
 15 16  1  0
 16 17  1  0
 17 18  1  0
 18 19  2  0
 19 20  1  0
 20 21  2  0
 21 22  1  0
 22 23  1  0
 23 24  1  0
 24 25  1  0
 25 26  1  0
 26 27  1  0
 26 28  1  0
 28 29  1  0
 21 30  1  0
 30 31  2  0
 31 32  1  0
 32 33  2  0
 32 34  1  0
 13  9  1  0
 34 14  1  0
 34 17  2  0
 31 18  1  0
 29 23  1  0
M  END
>  <activity_comment>  (144) 
active

>  <activity_id>  (144) 
9626277

>  <activity_properties>  (144) 
[]

>  <assay_chembl_id>  (144) 
CHEMBL1963787

>  <assay_description>  (144) 
PUBCHEM_BIOASSAY: Navigating the Kinome. (Class of assay: other) Panel member name: CAMK2B

>  <assay_type>  (144) 
F

>  <bao_endpoint>  (144) 
BAO_0000192

>  <bao_format>  (144) 
BAO_0000019

>  <bao_label>  (144) 
assay format

>  <canonical_smiles>  (144) 
COCCOCC#Cc1cc(cs1)c2n[nH]c3c4ccc(CN5CCN(C)CC5)cc4C(=O)c23

>  <data_validity_comment>  (144) 
nan

>  <data_validity_description>  (144) 
nan

>  <document_chembl_id>  (144) 
CHEMBL1201862

>  <document_journal>  (144) 
nan

>  <document_year>  (144) 
nan

>  <ligand_efficiency>  (144) 
nan

>  <molecule_pref_name>  (144) 
nan

>  <parent_molecule_chembl_id>  (144) 
CHEMBL387971

>  <pchembl_value>  (144) 
5.2

>  <potential_duplicate>  (144) 
False

>  <qudt_units>  (144) 
http://www.openphacts.org/units/Nanomolar

>  <record_id>  (144) 
1584694

>  <relation>  (144) 
=

>  <src_id>  (144) 
7

>  <standard_flag>  (144) 
True

>  <standard_relation>  (144) 
=

>  <standard_text_value>  (144) 
nan

>  <standard_type>  (144) 
Ki

>  <standard_units>  (144) 
nM

>  <standard_upper_value>  (144) 
nan

>  <standard_value>  (144) 
6309.57

>  <target_chembl_id>  (144) 
CHEMBL4121

>  <target_organism>  (144) 
Homo sapiens

>  <target_pref_name>  (144) 
CaM kinase II beta

>  <target_tax_id>  (144) 
9606

>  <text_value>  (144) 
nan

>  <toid>  (144) 
nan

>  <type>  (144) 
pKi

>  <units>  (144) 
nan

>  <uo_units>  (144) 
UO_0000065

>  <upper_value>  (144) 
nan

>  <value>  (144) 
5.2

>  <SMILES>  (144) 
COCCOCC#Cc1cc(cs1)c2n[nH]c3c4ccc(CN5CCN(C)CC5)cc4C(=O)c23

>  <NAME>  (144) 
CHEMBL387971

>  <FILTER>  (144) 
OK

>  <MW>  (144) 
476.602

>  <LogP>  (144) 
3.1115

>  <HBD>  (144) 
1

>  <HBA>  (144) 
7

>  <TPSA>  (144) 
70.69

>  <Label>  (144) 
CAMK2B

$$$$
CHEMBL2002470
     RDKit          2D

 22 25  0  0  0  0  0  0  0  0999 V2000
   -7.5767   -1.4452    0.0000 Cl  0  0  0  0  0  0  0  0  0  0  0  0
   -6.1050   -1.1553    0.0000 C   0  0  0  0  0  0  0  0  0  0  0  0
   -5.6202    0.2641    0.0000 C   0  0  0  0  0  0  0  0  0  0  0  0
   -4.1485    0.5540    0.0000 C   0  0  0  0  0  0  0  0  0  0  0  0
   -3.1616   -0.5756    0.0000 C   0  0  0  0  0  0  0  0  0  0  0  0
   -3.6464   -1.9951    0.0000 C   0  0  0  0  0  0  0  0  0  0  0  0
   -5.1181   -2.2850    0.0000 C   0  0  0  0  0  0  0  0  0  0  0  0
   -2.6595   -3.1247    0.0000 C   0  0  0  0  0  0  0  0  0  0  0  0
   -3.2490   -4.5040    0.0000 N   0  0  0  0  0  0  0  0  0  0  0  0
   -2.5382   -5.8249    0.0000 C   0  0  0  0  0  0  0  0  0  0  0  0
   -1.0623   -6.0927    0.0000 C   0  0  0  0  0  0  0  0  0  0  0  0
   -0.6633   -7.5386    0.0000 O   0  0  0  0  0  0  0  0  0  0  0  0
    0.0673   -5.1058    0.0000 N   0  0  0  0  0  0  0  0  0  0  0  0
   -0.0000   -3.6073    0.0000 C   0  0  0  0  0  0  0  0  0  0  0  0
    1.2135   -2.7256    0.0000 S   0  0  0  0  0  0  0  0  0  0  0  0
    0.7500   -1.2990    0.0000 C   0  0  0  0  0  0  0  0  0  0  0  0
    1.5000    0.0000    0.0000 C   0  0  0  0  0  0  0  0  0  0  0  0
    0.7500    1.2990    0.0000 C   0  0  0  0  0  0  0  0  0  0  0  0
   -0.7500    1.2990    0.0000 C   0  0  0  0  0  0  0  0  0  0  0  0
   -1.5000    0.0000    0.0000 C   0  0  0  0  0  0  0  0  0  0  0  0
   -0.7500   -1.2990    0.0000 C   0  0  0  0  0  0  0  0  0  0  0  0
   -1.2135   -2.7256    0.0000 C   0  0  0  0  0  0  0  0  0  0  0  0
  1  2  1  0
  2  3  2  0
  3  4  1  0
  4  5  2  0
  5  6  1  0
  6  7  2  0
  6  8  1  0
  8  9  2  0
  9 10  1  0
 10 11  1  0
 11 12  2  0
 11 13  1  0
 13 14  1  0
 14 15  1  0
 15 16  1  0
 16 17  1  0
 17 18  1  0
 18 19  1  0
 19 20  1  0
 20 21  1  0
 21 22  1  0
  7  2  1  0
 22  8  1  0
 22 14  2  0
 21 16  2  0
M  END
>  <activity_comment>  (145) 
active

>  <activity_id>  (145) 
9626279

>  <activity_properties>  (145) 
[]

>  <assay_chembl_id>  (145) 
CHEMBL1963787

>  <assay_description>  (145) 
PUBCHEM_BIOASSAY: Navigating the Kinome. (Class of assay: other) Panel member name: CAMK2B

>  <assay_type>  (145) 
F

>  <bao_endpoint>  (145) 
BAO_0000192

>  <bao_format>  (145) 
BAO_0000019

>  <bao_label>  (145) 
assay format

>  <canonical_smiles>  (145) 
Clc1cccc(c1)C2=NCC(=O)Nc3sc4CCCCc4c23

>  <data_validity_comment>  (145) 
nan

>  <data_validity_description>  (145) 
nan

>  <document_chembl_id>  (145) 
CHEMBL1201862

>  <document_journal>  (145) 
nan

>  <document_year>  (145) 
nan

>  <ligand_efficiency>  (145) 
nan

>  <molecule_pref_name>  (145) 
nan

>  <parent_molecule_chembl_id>  (145) 
CHEMBL2002470

>  <pchembl_value>  (145) 
5.2

>  <potential_duplicate>  (145) 
False

>  <qudt_units>  (145) 
http://www.openphacts.org/units/Nanomolar

>  <record_id>  (145) 
1585247

>  <relation>  (145) 
=

>  <src_id>  (145) 
7

>  <standard_flag>  (145) 
True

>  <standard_relation>  (145) 
=

>  <standard_text_value>  (145) 
nan

>  <standard_type>  (145) 
Ki

>  <standard_units>  (145) 
nM

>  <standard_upper_value>  (145) 
nan

>  <standard_value>  (145) 
6309.57

>  <target_chembl_id>  (145) 
CHEMBL4121

>  <target_organism>  (145) 
Homo sapiens

>  <target_pref_name>  (145) 
CaM kinase II beta

>  <target_tax_id>  (145) 
9606

>  <text_value>  (145) 
nan

>  <toid>  (145) 
nan

>  <type>  (145) 
pKi

>  <units>  (145) 
nan

>  <uo_units>  (145) 
UO_0000065

>  <upper_value>  (145) 
nan

>  <value>  (145) 
5.2

>  <SMILES>  (145) 
Clc1cccc(c1)C2=NCC(=O)Nc3sc4CCCCc4c23

>  <NAME>  (145) 
CHEMBL2002470

>  <FILTER>  (145) 
OK

>  <MW>  (145) 
330.84

>  <LogP>  (145) 
4.0698

>  <HBD>  (145) 
1

>  <HBA>  (145) 
3

>  <TPSA>  (145) 
41.46

>  <Label>  (145) 
CAMK2B

$$$$
CHEMBL211378
     RDKit          2D

 27 30  0  0  0  0  0  0  0  0999 V2000
  -14.5438   -2.9592    0.0000 C   0  0  0  0  0  0  0  0  0  0  0  0
  -13.1172   -2.4957    0.0000 C   0  0  0  0  0  0  0  0  0  0  0  0
  -12.8053   -1.0285    0.0000 C   0  0  0  0  0  0  0  0  0  0  0  0
  -11.3787   -0.5649    0.0000 C   0  0  0  0  0  0  0  0  0  0  0  0
  -10.2640   -1.5686    0.0000 C   0  0  0  0  0  0  0  0  0  0  0  0
  -10.5759   -3.0359    0.0000 C   0  0  0  0  0  0  0  0  0  0  0  0
   -9.4612   -4.0396    0.0000 N   0  0  0  0  0  0  0  0  0  0  0  0
   -8.0346   -3.5760    0.0000 C   0  0  0  0  0  0  0  0  0  0  0  0
   -7.7227   -2.1088    0.0000 O   0  0  0  0  0  0  0  0  0  0  0  0
   -6.9199   -4.5797    0.0000 N   0  0  0  0  0  0  0  0  0  0  0  0
   -5.4933   -4.1162    0.0000 C   0  0  0  0  0  0  0  0  0  0  0  0
   -4.3786   -5.1199    0.0000 C   0  0  0  0  0  0  0  0  0  0  0  0
   -2.9520   -4.6564    0.0000 C   0  0  0  0  0  0  0  0  0  0  0  0
   -2.6401   -3.1891    0.0000 C   0  0  0  0  0  0  0  0  0  0  0  0
   -3.7548   -2.1855    0.0000 C   0  0  0  0  0  0  0  0  0  0  0  0
   -5.1814   -2.6490    0.0000 C   0  0  0  0  0  0  0  0  0  0  0  0
   -1.2135   -2.7256    0.0000 C   0  0  0  0  0  0  0  0  0  0  0  0
    0.0000   -3.6073    0.0000 N   0  0  0  0  0  0  0  0  0  0  0  0
    1.2135   -2.7256    0.0000 O   0  0  0  0  0  0  0  0  0  0  0  0
    0.7500   -1.2990    0.0000 C   0  0  0  0  0  0  0  0  0  0  0  0
    1.5000    0.0000    0.0000 N   0  0  0  0  0  0  0  0  0  0  0  0
    0.7500    1.2990    0.0000 C   0  0  0  0  0  0  0  0  0  0  0  0
   -0.7500    1.2990    0.0000 N   0  0  0  0  0  0  0  0  0  0  0  0
   -1.5000    0.0000    0.0000 C   0  0  0  0  0  0  0  0  0  0  0  0
   -3.0000    0.0000    0.0000 N   0  0  0  0  0  0  0  0  0  0  0  0
   -0.7500   -1.2990    0.0000 C   0  0  0  0  0  0  0  0  0  0  0  0
  -12.0025   -3.4994    0.0000 C   0  0  0  0  0  0  0  0  0  0  0  0
  1  2  1  0
  2  3  2  0
  3  4  1  0
  4  5  2  0
  5  6  1  0
  6  7  1  0
  7  8  1  0
  8  9  2  0
  8 10  1  0
 10 11  1  0
 11 12  2  0
 12 13  1  0
 13 14  2  0
 14 15  1  0
 15 16  2  0
 14 17  1  0
 17 18  2  0
 18 19  1  0
 19 20  1  0
 20 21  2  0
 21 22  1  0
 22 23  2  0
 23 24  1  0
 24 25  1  0
 24 26  2  0
  6 27  2  0
 27  2  1  0
 16 11  1  0
 26 17  1  0
 26 20  1  0
M  END
>  <activity_comment>  (146) 
active

>  <activity_id>  (146) 
9626282

>  <activity_properties>  (146) 
[]

>  <assay_chembl_id>  (146) 
CHEMBL1963787

>  <assay_description>  (146) 
PUBCHEM_BIOASSAY: Navigating the Kinome. (Class of assay: other) Panel member name: CAMK2B

>  <assay_type>  (146) 
F

>  <bao_endpoint>  (146) 
BAO_0000192

>  <bao_format>  (146) 
BAO_0000019

>  <bao_label>  (146) 
assay format

>  <canonical_smiles>  (146) 
Cc1cccc(NC(=O)Nc2ccc(cc2)c3noc4ncnc(N)c34)c1

>  <data_validity_comment>  (146) 
nan

>  <data_validity_description>  (146) 
nan

>  <document_chembl_id>  (146) 
CHEMBL1201862

>  <document_journal>  (146) 
nan

>  <document_year>  (146) 
nan

>  <ligand_efficiency>  (146) 
nan

>  <molecule_pref_name>  (146) 
nan

>  <parent_molecule_chembl_id>  (146) 
CHEMBL211378

>  <pchembl_value>  (146) 
5.1

>  <potential_duplicate>  (146) 
False

>  <qudt_units>  (146) 
http://www.openphacts.org/units/Nanomolar

>  <record_id>  (146) 
1584247

>  <relation>  (146) 
=

>  <src_id>  (146) 
7

>  <standard_flag>  (146) 
True

>  <standard_relation>  (146) 
=

>  <standard_text_value>  (146) 
nan

>  <standard_type>  (146) 
Ki

>  <standard_units>  (146) 
nM

>  <standard_upper_value>  (146) 
nan

>  <standard_value>  (146) 
7943.28

>  <target_chembl_id>  (146) 
CHEMBL4121

>  <target_organism>  (146) 
Homo sapiens

>  <target_pref_name>  (146) 
CaM kinase II beta

>  <target_tax_id>  (146) 
9606

>  <text_value>  (146) 
nan

>  <toid>  (146) 
nan

>  <type>  (146) 
pKi

>  <units>  (146) 
nan

>  <uo_units>  (146) 
UO_0000065

>  <upper_value>  (146) 
nan

>  <value>  (146) 
5.1

>  <SMILES>  (146) 
Cc1cccc(NC(=O)Nc2ccc(cc2)c3noc4ncnc(N)c34)c1

>  <NAME>  (146) 
CHEMBL211378

>  <FILTER>  (146) 
OK

>  <MW>  (146) 
360.377

>  <LogP>  (146) 
3.81942

>  <HBD>  (146) 
3

>  <HBA>  (146) 
6

>  <TPSA>  (146) 
118.96

>  <Label>  (146) 
CAMK2B

$$$$
CHEMBL2001751
     RDKit          2D

 36 41  0  0  0  0  0  0  0  0999 V2000
   -0.7500   -9.0933    0.0000 N   0  0  0  0  0  0  0  0  0  0  0  0
   -1.5000   -7.7942    0.0000 C   0  0  0  0  0  0  0  0  0  0  0  0
   -0.7500   -6.4952    0.0000 C   0  0  0  0  0  0  0  0  0  0  0  0
    0.7500   -6.4952    0.0000 O   0  0  0  0  0  0  0  0  0  0  0  0
    1.5000   -5.1962    0.0000 C   0  0  0  0  0  0  0  0  0  0  0  0
    3.0000   -5.1962    0.0000 C   0  0  0  0  0  0  0  0  0  0  0  0
    3.7500   -3.8971    0.0000 N   0  0  0  0  0  0  0  0  0  0  0  0
    3.0000   -2.5981    0.0000 C   0  0  0  0  0  0  0  0  0  0  0  0
    1.5000   -2.5981    0.0000 C   0  0  0  0  0  0  0  0  0  0  0  0
    0.7500   -3.8971    0.0000 C   0  0  0  0  0  0  0  0  0  0  0  0
    0.7500   -1.2990    0.0000 C   0  0  0  0  0  0  0  0  0  0  0  0
    1.5000    0.0000    0.0000 C   0  0  0  0  0  0  0  0  0  0  0  0
    0.7500    1.2990    0.0000 C   0  0  0  0  0  0  0  0  0  0  0  0
   -0.7500    1.2990    0.0000 C   0  0  0  0  0  0  0  0  0  0  0  0
   -1.7537    2.4138    0.0000 N   0  0  0  0  0  0  0  0  0  0  0  0
   -3.1240    1.8037    0.0000 C   0  0  0  0  0  0  0  0  0  0  0  0
   -4.4231    2.5537    0.0000 O   0  0  0  0  0  0  0  0  0  0  0  0
   -2.9672    0.3119    0.0000 C   0  0  0  0  0  0  0  0  0  0  0  0
   -4.0819   -0.6918    0.0000 C   0  0  0  0  0  0  0  0  0  0  0  0
   -5.5085   -0.2283    0.0000 C   0  0  0  0  0  0  0  0  0  0  0  0
   -6.7220   -1.1100    0.0000 O   0  0  0  0  0  0  0  0  0  0  0  0
   -7.9356   -0.2283    0.0000 C   0  0  0  0  0  0  0  0  0  0  0  0
   -7.4720    1.1983    0.0000 C   0  0  0  0  0  0  0  0  0  0  0  0
   -5.9720    1.1983    0.0000 C   0  0  0  0  0  0  0  0  0  0  0  0
   -1.5000    0.0000    0.0000 C   0  0  0  0  0  0  0  0  0  0  0  0
   -0.7500   -1.2990    0.0000 C   0  0  0  0  0  0  0  0  0  0  0  0
   -3.0000   -7.7942    0.0000 C   0  0  0  0  0  0  0  0  0  0  0  0
   -3.7500   -9.0933    0.0000 C   0  0  0  0  0  0  0  0  0  0  0  0
   -3.1399  -10.4636    0.0000 C   0  0  0  0  0  0  0  0  0  0  0  0
   -4.2546  -11.4673    0.0000 N   0  0  0  0  0  0  0  0  0  0  0  0
   -5.5537  -10.7173    0.0000 C   0  0  0  0  0  0  0  0  0  0  0  0
   -6.9802  -11.1808    0.0000 C   0  0  0  0  0  0  0  0  0  0  0  0
   -8.0950  -10.1771    0.0000 C   0  0  0  0  0  0  0  0  0  0  0  0
   -7.7831   -8.7099    0.0000 C   0  0  0  0  0  0  0  0  0  0  0  0
   -6.3565   -8.2464    0.0000 C   0  0  0  0  0  0  0  0  0  0  0  0
   -5.2418   -9.2501    0.0000 C   0  0  0  0  0  0  0  0  0  0  0  0
  1  2  1  0
  2  3  1  0
  3  4  1  0
  4  5  1  0
  5  6  2  0
  6  7  1  0
  7  8  2  0
  8  9  1  0
  9 10  2  0
  9 11  1  0
 11 12  2  0
 12 13  1  0
 13 14  2  0
 14 15  1  0
 15 16  1  0
 16 17  2  0
 16 18  1  0
 18 19  2  3
 19 20  1  0
 20 21  1  0
 21 22  1  0
 22 23  2  0
 23 24  1  0
 18 25  1  0
 25 26  2  0
  2 27  1  0
 27 28  1  0
 28 29  2  0
 29 30  1  0
 30 31  1  0
 31 32  2  0
 32 33  1  0
 33 34  2  0
 34 35  1  0
 35 36  2  0
 10  5  1  0
 26 11  1  0
 25 14  1  0
 24 20  2  0
 36 28  1  0
 36 31  1  0
M  END
>  <activity_comment>  (147) 
active

>  <activity_id>  (147) 
9626285

>  <activity_properties>  (147) 
[]

>  <assay_chembl_id>  (147) 
CHEMBL1963787

>  <assay_description>  (147) 
PUBCHEM_BIOASSAY: Navigating the Kinome. (Class of assay: other) Panel member name: CAMK2B

>  <assay_type>  (147) 
F

>  <bao_endpoint>  (147) 
BAO_0000192

>  <bao_format>  (147) 
BAO_0000019

>  <bao_label>  (147) 
assay format

>  <canonical_smiles>  (147) 
NC(COc1cncc(c1)c2ccc3NC(=O)C(=Cc4occc4)c3c2)Cc5c[nH]c6ccccc56

>  <data_validity_comment>  (147) 
nan

>  <data_validity_description>  (147) 
nan

>  <document_chembl_id>  (147) 
CHEMBL1201862

>  <document_journal>  (147) 
nan

>  <document_year>  (147) 
nan

>  <ligand_efficiency>  (147) 
nan

>  <molecule_pref_name>  (147) 
nan

>  <parent_molecule_chembl_id>  (147) 
CHEMBL2001751

>  <pchembl_value>  (147) 
6.6

>  <potential_duplicate>  (147) 
False

>  <qudt_units>  (147) 
http://www.openphacts.org/units/Nanomolar

>  <record_id>  (147) 
1584636

>  <relation>  (147) 
=

>  <src_id>  (147) 
7

>  <standard_flag>  (147) 
True

>  <standard_relation>  (147) 
=

>  <standard_text_value>  (147) 
nan

>  <standard_type>  (147) 
Ki

>  <standard_units>  (147) 
nM

>  <standard_upper_value>  (147) 
nan

>  <standard_value>  (147) 
251.19

>  <target_chembl_id>  (147) 
CHEMBL4121

>  <target_organism>  (147) 
Homo sapiens

>  <target_pref_name>  (147) 
CaM kinase II beta

>  <target_tax_id>  (147) 
9606

>  <text_value>  (147) 
nan

>  <toid>  (147) 
nan

>  <type>  (147) 
pKi

>  <units>  (147) 
nan

>  <uo_units>  (147) 
UO_0000065

>  <upper_value>  (147) 
nan

>  <value>  (147) 
6.6

>  <SMILES>  (147) 
NC(COc1cncc(c1)c2ccc3NC(=O)C(=Cc4occc4)c3c2)Cc5c[nH]c6ccccc56

>  <NAME>  (147) 
CHEMBL2001751

>  <FILTER>  (147) 
OK

>  <MW>  (147) 
476.536

>  <LogP>  (147) 
5.2644

>  <HBD>  (147) 
3

>  <HBA>  (147) 
5

>  <TPSA>  (147) 
106.17

>  <Label>  (147) 
CAMK2B

$$$$
CHEMBL2007002
     RDKit          2D

 27 30  0  0  0  0  0  0  0  0999 V2000
   -0.7500   -6.4952    0.0000 C   0  0  0  0  0  0  0  0  0  0  0  0
    0.7500   -6.4952    0.0000 O   0  0  0  0  0  0  0  0  0  0  0  0
    1.5000   -5.1962    0.0000 C   0  0  0  0  0  0  0  0  0  0  0  0
    0.7500   -3.8971    0.0000 C   0  0  0  0  0  0  0  0  0  0  0  0
    1.5000   -2.5981    0.0000 C   0  0  0  0  0  0  0  0  0  0  0  0
    3.0000   -2.5981    0.0000 C   0  0  0  0  0  0  0  0  0  0  0  0
    3.7500   -3.8971    0.0000 C   0  0  0  0  0  0  0  0  0  0  0  0
    3.0000   -5.1962    0.0000 C   0  0  0  0  0  0  0  0  0  0  0  0
    3.7500   -6.4952    0.0000 O   0  0  0  0  0  0  0  0  0  0  0  0
    0.7500   -1.2990    0.0000 C   0  0  0  0  0  0  0  0  0  0  0  0
    1.5000    0.0000    0.0000 C   0  0  0  0  0  0  0  0  0  0  0  0
    0.7500    1.2990    0.0000 C   0  0  0  0  0  0  0  0  0  0  0  0
   -0.7500    1.2990    0.0000 C   0  0  0  0  0  0  0  0  0  0  0  0
   -1.7537    2.4138    0.0000 N   0  0  0  0  0  0  0  0  0  0  0  0
   -3.1240    1.8037    0.0000 N   0  0  0  0  0  0  0  0  0  0  0  0
   -2.9672    0.3119    0.0000 C   0  0  0  0  0  0  0  0  0  0  0  0
   -4.0819   -0.6918    0.0000 C   0  0  0  0  0  0  0  0  0  0  0  0
   -3.7701   -2.1590    0.0000 O   0  0  0  0  0  0  0  0  0  0  0  0
   -5.5085   -0.2283    0.0000 N   0  0  0  0  0  0  0  0  0  0  0  0
   -6.6232   -1.2320    0.0000 C   0  0  0  0  0  0  0  0  0  0  0  0
   -8.0498   -0.7685    0.0000 C   0  0  0  0  0  0  0  0  0  0  0  0
   -9.1645   -1.7722    0.0000 C   0  0  0  0  0  0  0  0  0  0  0  0
   -8.8527   -3.2394    0.0000 C   0  0  0  0  0  0  0  0  0  0  0  0
   -7.4261   -3.7029    0.0000 C   0  0  0  0  0  0  0  0  0  0  0  0
   -6.3114   -2.6992    0.0000 C   0  0  0  0  0  0  0  0  0  0  0  0
   -1.5000    0.0000    0.0000 C   0  0  0  0  0  0  0  0  0  0  0  0
   -0.7500   -1.2990    0.0000 C   0  0  0  0  0  0  0  0  0  0  0  0
  1  2  1  0
  2  3  1  0
  3  4  2  0
  4  5  1  0
  5  6  2  0
  6  7  1  0
  7  8  2  0
  8  9  1  0
  5 10  1  0
 10 11  2  0
 11 12  1  0
 12 13  2  0
 13 14  1  0
 14 15  1  0
 15 16  2  0
 16 17  1  0
 17 18  2  0
 17 19  1  0
 19 20  1  0
 20 21  2  0
 21 22  1  0
 22 23  2  0
 23 24  1  0
 24 25  2  0
 16 26  1  0
 26 27  2  0
  8  3  1  0
 27 10  1  0
 26 13  1  0
 25 20  1  0
M  END
>  <activity_comment>  (148) 
active

>  <activity_id>  (148) 
9626294

>  <activity_properties>  (148) 
[]

>  <assay_chembl_id>  (148) 
CHEMBL1963787

>  <assay_description>  (148) 
PUBCHEM_BIOASSAY: Navigating the Kinome. (Class of assay: other) Panel member name: CAMK2B

>  <assay_type>  (148) 
F

>  <bao_endpoint>  (148) 
BAO_0000192

>  <bao_format>  (148) 
BAO_0000019

>  <bao_label>  (148) 
assay format

>  <canonical_smiles>  (148) 
COc1cc(ccc1O)c2ccc3[nH]nc(C(=O)Nc4ccccc4)c3c2

>  <data_validity_comment>  (148) 
nan

>  <data_validity_description>  (148) 
nan

>  <document_chembl_id>  (148) 
CHEMBL1201862

>  <document_journal>  (148) 
nan

>  <document_year>  (148) 
nan

>  <ligand_efficiency>  (148) 
nan

>  <molecule_pref_name>  (148) 
nan

>  <parent_molecule_chembl_id>  (148) 
CHEMBL2007002

>  <pchembl_value>  (148) 
5.3

>  <potential_duplicate>  (148) 
False

>  <qudt_units>  (148) 
http://www.openphacts.org/units/Nanomolar

>  <record_id>  (148) 
1584619

>  <relation>  (148) 
=

>  <src_id>  (148) 
7

>  <standard_flag>  (148) 
True

>  <standard_relation>  (148) 
=

>  <standard_text_value>  (148) 
nan

>  <standard_type>  (148) 
Ki

>  <standard_units>  (148) 
nM

>  <standard_upper_value>  (148) 
nan

>  <standard_value>  (148) 
5011.87

>  <target_chembl_id>  (148) 
CHEMBL4121

>  <target_organism>  (148) 
Homo sapiens

>  <target_pref_name>  (148) 
CaM kinase II beta

>  <target_tax_id>  (148) 
9606

>  <text_value>  (148) 
nan

>  <toid>  (148) 
nan

>  <type>  (148) 
pKi

>  <units>  (148) 
nan

>  <uo_units>  (148) 
UO_0000065

>  <upper_value>  (148) 
nan

>  <value>  (148) 
5.3

>  <SMILES>  (148) 
COc1cc(ccc1O)c2ccc3[nH]nc(C(=O)Nc4ccccc4)c3c2

>  <NAME>  (148) 
CHEMBL2007002

>  <FILTER>  (148) 
OK

>  <MW>  (148) 
359.385

>  <LogP>  (148) 
4.1964

>  <HBD>  (148) 
3

>  <HBA>  (148) 
4

>  <TPSA>  (148) 
87.24

>  <Label>  (148) 
CAMK2B

$$$$
CHEMBL1969588
     RDKit          2D

 24 27  0  0  0  0  0  0  0  0999 V2000
   -6.2961   -1.6453    0.0000 Cl  0  0  0  0  0  0  0  0  0  0  0  0
   -5.1814   -2.6490    0.0000 C   0  0  0  0  0  0  0  0  0  0  0  0
   -3.7548   -2.1855    0.0000 C   0  0  0  0  0  0  0  0  0  0  0  0
   -2.6401   -3.1891    0.0000 C   0  0  0  0  0  0  0  0  0  0  0  0
   -2.9520   -4.6564    0.0000 C   0  0  0  0  0  0  0  0  0  0  0  0
   -4.3786   -5.1199    0.0000 C   0  0  0  0  0  0  0  0  0  0  0  0
   -4.6904   -6.5871    0.0000 N   0  0  0  0  0  0  0  0  0  0  0  0
   -6.1170   -7.0506    0.0000 C   0  0  0  0  0  0  0  0  0  0  0  0
   -6.4289   -8.5179    0.0000 C   0  0  0  0  0  0  0  0  0  0  0  0
   -7.8555   -8.9814    0.0000 C   0  0  0  0  0  0  0  0  0  0  0  0
   -8.1673  -10.4486    0.0000 C   0  0  0  0  0  0  0  0  0  0  0  0
   -7.0526  -11.4523    0.0000 C   0  0  0  0  0  0  0  0  0  0  0  0
   -5.6260  -10.9888    0.0000 C   0  0  0  0  0  0  0  0  0  0  0  0
   -5.3142   -9.5216    0.0000 C   0  0  0  0  0  0  0  0  0  0  0  0
   -5.4933   -4.1162    0.0000 N   0  0  0  0  0  0  0  0  0  0  0  0
   -1.2135   -2.7256    0.0000 C   0  0  0  0  0  0  0  0  0  0  0  0
    0.0000   -3.6073    0.0000 C   0  0  0  0  0  0  0  0  0  0  0  0
    1.2135   -2.7256    0.0000 N   0  0  0  0  0  0  0  0  0  0  0  0
    0.7500   -1.2990    0.0000 C   0  0  0  0  0  0  0  0  0  0  0  0
    1.5000    0.0000    0.0000 N   0  0  0  0  0  0  0  0  0  0  0  0
    0.7500    1.2990    0.0000 C   0  0  0  0  0  0  0  0  0  0  0  0
   -0.7500    1.2990    0.0000 C   0  0  0  0  0  0  0  0  0  0  0  0
   -1.5000    0.0000    0.0000 C   0  0  0  0  0  0  0  0  0  0  0  0
   -0.7500   -1.2990    0.0000 C   0  0  0  0  0  0  0  0  0  0  0  0
  1  2  1  0
  2  3  2  0
  3  4  1  0
  4  5  2  0
  5  6  1  0
  6  7  1  0
  7  8  1  0
  8  9  1  0
  9 10  2  0
 10 11  1  0
 11 12  2  0
 12 13  1  0
 13 14  2  0
  6 15  2  0
  4 16  1  0
 16 17  2  0
 17 18  1  0
 18 19  1  0
 19 20  2  0
 20 21  1  0
 21 22  2  0
 22 23  1  0
 23 24  2  0
 15  2  1  0
 14  9  1  0
 24 16  1  0
 24 19  1  0
M  END
>  <activity_comment>  (149) 
active

>  <activity_id>  (149) 
9626297

>  <activity_properties>  (149) 
[]

>  <assay_chembl_id>  (149) 
CHEMBL1963787

>  <assay_description>  (149) 
PUBCHEM_BIOASSAY: Navigating the Kinome. (Class of assay: other) Panel member name: CAMK2B

>  <assay_type>  (149) 
F

>  <bao_endpoint>  (149) 
BAO_0000192

>  <bao_format>  (149) 
BAO_0000019

>  <bao_label>  (149) 
assay format

>  <canonical_smiles>  (149) 
Clc1cc(cc(NCc2ccccc2)n1)c3c[nH]c4ncccc34

>  <data_validity_comment>  (149) 
nan

>  <data_validity_description>  (149) 
nan

>  <document_chembl_id>  (149) 
CHEMBL1201862

>  <document_journal>  (149) 
nan

>  <document_year>  (149) 
nan

>  <ligand_efficiency>  (149) 
nan

>  <molecule_pref_name>  (149) 
nan

>  <parent_molecule_chembl_id>  (149) 
CHEMBL1969588

>  <pchembl_value>  (149) 
6.0

>  <potential_duplicate>  (149) 
False

>  <qudt_units>  (149) 
http://www.openphacts.org/units/Nanomolar

>  <record_id>  (149) 
1584074

>  <relation>  (149) 
=

>  <src_id>  (149) 
7

>  <standard_flag>  (149) 
True

>  <standard_relation>  (149) 
=

>  <standard_text_value>  (149) 
nan

>  <standard_type>  (149) 
Ki

>  <standard_units>  (149) 
nM

>  <standard_upper_value>  (149) 
nan

>  <standard_value>  (149) 
1000.0

>  <target_chembl_id>  (149) 
CHEMBL4121

>  <target_organism>  (149) 
Homo sapiens

>  <target_pref_name>  (149) 
CaM kinase II beta

>  <target_tax_id>  (149) 
9606

>  <text_value>  (149) 
nan

>  <toid>  (149) 
nan

>  <type>  (149) 
pKi

>  <units>  (149) 
nan

>  <uo_units>  (149) 
UO_0000065

>  <upper_value>  (149) 
nan

>  <value>  (149) 
6.0

>  <SMILES>  (149) 
Clc1cc(cc(NCc2ccccc2)n1)c3c[nH]c4ncccc34

>  <NAME>  (149) 
CHEMBL1969588

>  <FILTER>  (149) 
OK

>  <MW>  (149) 
334.81

>  <LogP>  (149) 
4.8904

>  <HBD>  (149) 
2

>  <HBA>  (149) 
3

>  <TPSA>  (149) 
53.6

>  <Label>  (149) 
CAMK2B

$$$$
CHEMBL1967878
     RDKit          2D

 33 37  0  0  0  0  0  0  0  0999 V2000
   14.7401    2.1079    0.0000 C   0  0  0  0  0  0  0  0  0  0  0  0
   13.3698    2.7180    0.0000 N   0  0  0  0  0  0  0  0  0  0  0  0
   12.1563    1.8363    0.0000 C   0  0  0  0  0  0  0  0  0  0  0  0
   10.7859    2.4464    0.0000 C   0  0  0  0  0  0  0  0  0  0  0  0
   10.6291    3.9382    0.0000 N   0  0  0  0  0  0  0  0  0  0  0  0
   11.8427    4.8199    0.0000 C   0  0  0  0  0  0  0  0  0  0  0  0
   13.2130    4.2098    0.0000 C   0  0  0  0  0  0  0  0  0  0  0  0
    9.2588    4.5483    0.0000 C   0  0  0  0  0  0  0  0  0  0  0  0
    9.1020    6.0401    0.0000 C   0  0  0  0  0  0  0  0  0  0  0  0
    7.7317    6.6502    0.0000 C   0  0  0  0  0  0  0  0  0  0  0  0
    6.5182    5.7685    0.0000 C   0  0  0  0  0  0  0  0  0  0  0  0
    5.1479    6.3786    0.0000 N   0  0  0  0  0  0  0  0  0  0  0  0
    3.9343    5.4969    0.0000 C   0  0  0  0  0  0  0  0  0  0  0  0
    2.5640    6.1070    0.0000 N   0  0  0  0  0  0  0  0  0  0  0  0
    1.3505    5.2253    0.0000 C   0  0  0  0  0  0  0  0  0  0  0  0
    1.5073    3.7336    0.0000 C   0  0  0  0  0  0  0  0  0  0  0  0
    0.2938    2.8519    0.0000 F   0  0  0  0  0  0  0  0  0  0  0  0
    2.8776    3.1235    0.0000 C   0  0  0  0  0  0  0  0  0  0  0  0
    3.0344    1.6317    0.0000 N   0  0  0  0  0  0  0  0  0  0  0  0
    1.8209    0.7500    0.0000 C   0  0  0  0  0  0  0  0  0  0  0  0
    0.3943    1.2135    0.0000 C   0  0  0  0  0  0  0  0  0  0  0  0
    1.2760    0.0000    0.0000 C   0  0  0  0  0  0  0  0  0  0  0  0
    0.3943   -1.2135    0.0000 C   0  0  0  0  0  0  0  0  0  0  0  0
   -1.0323   -0.7500    0.0000 C   0  0  0  0  0  0  0  0  0  0  0  0
   -1.0323    0.7500    0.0000 C   0  0  0  0  0  0  0  0  0  0  0  0
    1.8209   -0.7500    0.0000 C   0  0  0  0  0  0  0  0  0  0  0  0
    3.0344   -1.6317    0.0000 C   0  0  0  0  0  0  0  0  0  0  0  0
    4.4047   -1.0216    0.0000 O   0  0  0  0  0  0  0  0  0  0  0  0
    2.8776   -3.1235    0.0000 N   0  0  0  0  0  0  0  0  0  0  0  0
    4.0911    4.0051    0.0000 N   0  0  0  0  0  0  0  0  0  0  0  0
    6.6750    4.2767    0.0000 C   0  0  0  0  0  0  0  0  0  0  0  0
    8.0453    3.6666    0.0000 C   0  0  0  0  0  0  0  0  0  0  0  0
    8.2021    2.1748    0.0000 C   0  0  0  0  0  0  0  0  0  0  0  0
  1  2  1  0
  2  3  1  0
  3  4  1  0
  4  5  1  0
  5  6  1  0
  6  7  1  0
  5  8  1  0
  8  9  2  0
  9 10  1  0
 10 11  2  0
 11 12  1  0
 12 13  1  0
 13 14  2  0
 14 15  1  0
 15 16  2  0
 16 17  1  0
 16 18  1  0
 18 19  1  0
 19 20  1  0
 20 21  1  0
 21 22  1  0
 22 23  1  0
 23 24  1  0
 24 25  2  0
 23 26  1  0
 26 27  1  0
 27 28  2  0
 27 29  1  0
 18 30  2  0
 11 31  1  0
 31 32  2  0
 32 33  1  0
  7  2  1  0
 32  8  1  0
 30 13  1  0
 26 20  1  0
 25 21  1  0
M  END
>  <activity_comment>  (150) 
active

>  <activity_id>  (150) 
9626298

>  <activity_properties>  (150) 
[]

>  <assay_chembl_id>  (150) 
CHEMBL1963787

>  <assay_description>  (150) 
PUBCHEM_BIOASSAY: Navigating the Kinome. (Class of assay: other) Panel member name: CAMK2B

>  <assay_type>  (150) 
F

>  <bao_endpoint>  (150) 
BAO_0000192

>  <bao_format>  (150) 
BAO_0000019

>  <bao_label>  (150) 
assay format

>  <canonical_smiles>  (150) 
CN1CCN(CC1)c2ccc(Nc3ncc(F)c(NC4C5CC(C=C5)C4C(=O)N)n3)cc2C

>  <data_validity_comment>  (150) 
nan

>  <data_validity_description>  (150) 
nan

>  <document_chembl_id>  (150) 
CHEMBL1201862

>  <document_journal>  (150) 
nan

>  <document_year>  (150) 
nan

>  <ligand_efficiency>  (150) 
nan

>  <molecule_pref_name>  (150) 
CENISERTIB

>  <parent_molecule_chembl_id>  (150) 
CHEMBL1967878

>  <pchembl_value>  (150) 
5.3

>  <potential_duplicate>  (150) 
False

>  <qudt_units>  (150) 
http://www.openphacts.org/units/Nanomolar

>  <record_id>  (150) 
1584284

>  <relation>  (150) 
=

>  <src_id>  (150) 
7

>  <standard_flag>  (150) 
True

>  <standard_relation>  (150) 
=

>  <standard_text_value>  (150) 
nan

>  <standard_type>  (150) 
Ki

>  <standard_units>  (150) 
nM

>  <standard_upper_value>  (150) 
nan

>  <standard_value>  (150) 
5011.87

>  <target_chembl_id>  (150) 
CHEMBL4121

>  <target_organism>  (150) 
Homo sapiens

>  <target_pref_name>  (150) 
CaM kinase II beta

>  <target_tax_id>  (150) 
9606

>  <text_value>  (150) 
nan

>  <toid>  (150) 
nan

>  <type>  (150) 
pKi

>  <units>  (150) 
nan

>  <uo_units>  (150) 
UO_0000065

>  <upper_value>  (150) 
nan

>  <value>  (150) 
5.3

>  <SMILES>  (150) 
CN1CCN(CC1)c2ccc(Nc3ncc(F)c(NC4C5CC(C=C5)C4C(=O)N)n3)cc2C

>  <NAME>  (150) 
CHEMBL1967878

>  <FILTER>  (150) 
OK

>  <MW>  (150) 
451.55

>  <LogP>  (150) 
2.50742

>  <HBD>  (150) 
3

>  <HBA>  (150) 
7

>  <TPSA>  (150) 
99.41

>  <Label>  (150) 
CAMK2B

$$$$
CHEMBL1990254
     RDKit          2D

 24 26  0  0  0  0  0  0  0  0999 V2000
    3.7500   -6.4952    0.0000 N   0  0  0  0  0  0  0  0  0  0  0  0
    3.0000   -5.1962    0.0000 C   0  0  0  0  0  0  0  0  0  0  0  0
    1.5000   -5.1962    0.0000 C   0  0  0  0  0  0  0  0  0  0  0  0
    0.7500   -3.8971    0.0000 N   0  0  0  0  0  0  0  0  0  0  0  0
    1.5000   -2.5981    0.0000 C   0  0  0  0  0  0  0  0  0  0  0  0
    3.0000   -2.5981    0.0000 O   0  0  0  0  0  0  0  0  0  0  0  0
    0.7500   -1.2990    0.0000 C   0  0  0  0  0  0  0  0  0  0  0  0
    1.5000    0.0000    0.0000 C   0  0  0  0  0  0  0  0  0  0  0  0
    0.7500    1.2990    0.0000 C   0  0  0  0  0  0  0  0  0  0  0  0
   -0.7500    1.2990    0.0000 C   0  0  0  0  0  0  0  0  0  0  0  0
   -1.5000    0.0000    0.0000 C   0  0  0  0  0  0  0  0  0  0  0  0
   -0.7500   -1.2990    0.0000 C   0  0  0  0  0  0  0  0  0  0  0  0
   -1.5000    2.5981    0.0000 C   0  0  0  0  0  0  0  0  0  0  0  0
   -0.7500    3.8971    0.0000 C   0  0  0  0  0  0  0  0  0  0  0  0
   -1.5000    5.1962    0.0000 C   0  0  0  0  0  0  0  0  0  0  0  0
   -3.0000    5.1962    0.0000 N   0  0  0  0  0  0  0  0  0  0  0  0
   -3.7500    3.8971    0.0000 C   0  0  0  0  0  0  0  0  0  0  0  0
   -3.0000    2.5981    0.0000 C   0  0  0  0  0  0  0  0  0  0  0  0
    0.7500   -6.4952    0.0000 C   0  0  0  0  0  0  0  0  0  0  0  0
   -0.7500   -6.4952    0.0000 C   0  0  0  0  0  0  0  0  0  0  0  0
   -1.5000   -7.7942    0.0000 C   0  0  0  0  0  0  0  0  0  0  0  0
   -0.7500   -9.0933    0.0000 C   0  0  0  0  0  0  0  0  0  0  0  0
    0.7500   -9.0933    0.0000 C   0  0  0  0  0  0  0  0  0  0  0  0
    1.5000   -7.7942    0.0000 C   0  0  0  0  0  0  0  0  0  0  0  0
  1  2  1  0
  2  3  1  0
  3  4  1  0
  4  5  1  0
  5  6  2  0
  5  7  1  0
  7  8  2  0
  8  9  1  0
  9 10  2  0
 10 11  1  0
 11 12  2  0
 10 13  1  0
 13 14  2  0
 14 15  1  0
 15 16  2  0
 16 17  1  0
 17 18  2  0
  3 19  1  0
 19 20  2  0
 20 21  1  0
 21 22  2  0
 22 23  1  0
 23 24  2  0
 12  7  1  0
 18 13  1  0
 24 19  1  0
M  END
>  <activity_comment>  (151) 
active

>  <activity_id>  (151) 
9626300

>  <activity_properties>  (151) 
[]

>  <assay_chembl_id>  (151) 
CHEMBL1963787

>  <assay_description>  (151) 
PUBCHEM_BIOASSAY: Navigating the Kinome. (Class of assay: other) Panel member name: CAMK2B

>  <assay_type>  (151) 
F

>  <bao_endpoint>  (151) 
BAO_0000192

>  <bao_format>  (151) 
BAO_0000019

>  <bao_label>  (151) 
assay format

>  <canonical_smiles>  (151) 
NCC(NC(=O)c1ccc(cc1)c2ccncc2)c3ccccc3

>  <data_validity_comment>  (151) 
nan

>  <data_validity_description>  (151) 
nan

>  <document_chembl_id>  (151) 
CHEMBL1201862

>  <document_journal>  (151) 
nan

>  <document_year>  (151) 
nan

>  <ligand_efficiency>  (151) 
nan

>  <molecule_pref_name>  (151) 
nan

>  <parent_molecule_chembl_id>  (151) 
CHEMBL1990254

>  <pchembl_value>  (151) 
5.1

>  <potential_duplicate>  (151) 
False

>  <qudt_units>  (151) 
http://www.openphacts.org/units/Nanomolar

>  <record_id>  (151) 
1584436

>  <relation>  (151) 
=

>  <src_id>  (151) 
7

>  <standard_flag>  (151) 
True

>  <standard_relation>  (151) 
=

>  <standard_text_value>  (151) 
nan

>  <standard_type>  (151) 
Ki

>  <standard_units>  (151) 
nM

>  <standard_upper_value>  (151) 
nan

>  <standard_value>  (151) 
7943.28

>  <target_chembl_id>  (151) 
CHEMBL4121

>  <target_organism>  (151) 
Homo sapiens

>  <target_pref_name>  (151) 
CaM kinase II beta

>  <target_tax_id>  (151) 
9606

>  <text_value>  (151) 
nan

>  <toid>  (151) 
nan

>  <type>  (151) 
pKi

>  <units>  (151) 
nan

>  <uo_units>  (151) 
UO_0000065

>  <upper_value>  (151) 
nan

>  <value>  (151) 
5.1

>  <SMILES>  (151) 
NCC(NC(=O)c1ccc(cc1)c2ccncc2)c3ccccc3

>  <NAME>  (151) 
CHEMBL1990254

>  <FILTER>  (151) 
OK

>  <MW>  (151) 
317.392

>  <LogP>  (151) 
3.1784

>  <HBD>  (151) 
2

>  <HBA>  (151) 
3

>  <TPSA>  (151) 
68.01

>  <Label>  (151) 
CAMK2B

$$$$
CHEMBL1983255
     RDKit          2D

 25 27  0  0  0  0  0  0  0  0999 V2000
   10.5000   -0.0000    0.0000 C   0  0  0  0  0  0  0  0  0  0  0  0
    9.7500   -1.2990    0.0000 C   0  0  0  0  0  0  0  0  0  0  0  0
    8.2500   -1.2990    0.0000 C   0  0  0  0  0  0  0  0  0  0  0  0
    7.5000   -2.5981    0.0000 C   0  0  0  0  0  0  0  0  0  0  0  0
    6.0000   -2.5981    0.0000 O   0  0  0  0  0  0  0  0  0  0  0  0
    5.2500   -3.8971    0.0000 C   0  0  0  0  0  0  0  0  0  0  0  0
    6.0000   -5.1962    0.0000 C   0  0  0  0  0  0  0  0  0  0  0  0
    5.2500   -6.4952    0.0000 C   0  0  0  0  0  0  0  0  0  0  0  0
    3.7500   -6.4952    0.0000 C   0  0  0  0  0  0  0  0  0  0  0  0
    3.0000   -5.1962    0.0000 C   0  0  0  0  0  0  0  0  0  0  0  0
    3.7500   -3.8971    0.0000 C   0  0  0  0  0  0  0  0  0  0  0  0
    3.0000   -2.5981    0.0000 C   0  0  0  0  0  0  0  0  0  0  0  0
    1.5000   -2.5981    0.0000 C   0  0  0  0  0  0  0  0  0  0  0  0
    0.7500   -1.2990    0.0000 C   0  0  0  0  0  0  0  0  0  0  0  0
    1.5000    0.0000    0.0000 C   0  0  0  0  0  0  0  0  0  0  0  0
    0.7500    1.2990    0.0000 C   0  0  0  0  0  0  0  0  0  0  0  0
   -0.7500    1.2990    0.0000 C   0  0  0  0  0  0  0  0  0  0  0  0
   -1.5000    0.0000    0.0000 C   0  0  0  0  0  0  0  0  0  0  0  0
   -3.0000    0.0000    0.0000 N   0  0  0  0  0  0  0  0  0  0  0  0
   -3.7500   -1.2990    0.0000 C   0  0  0  0  0  0  0  0  0  0  0  0
   -5.2500   -1.2990    0.0000 N   0  0  0  0  0  0  0  0  0  0  0  0
   -3.0000   -2.5981    0.0000 N   0  0  0  0  0  0  0  0  0  0  0  0
   -1.5000   -2.5981    0.0000 C   0  0  0  0  0  0  0  0  0  0  0  0
   -0.7500   -3.8971    0.0000 N   0  0  0  0  0  0  0  0  0  0  0  0
   -0.7500   -1.2990    0.0000 C   0  0  0  0  0  0  0  0  0  0  0  0
  1  2  1  0
  2  3  1  0
  3  4  1  0
  4  5  1  0
  5  6  1  0
  6  7  2  0
  7  8  1  0
  8  9  2  0
  9 10  1  0
 10 11  2  0
 11 12  1  0
 12 13  1  0
 13 14  1  0
 14 15  2  0
 15 16  1  0
 16 17  2  0
 17 18  1  0
 18 19  2  0
 19 20  1  0
 20 21  1  0
 20 22  2  0
 22 23  1  0
 23 24  1  0
 23 25  2  0
 11  6  1  0
 25 14  1  0
 25 18  1  0
M  END
>  <activity_comment>  (152) 
active

>  <activity_id>  (152) 
9626302

>  <activity_properties>  (152) 
[]

>  <assay_chembl_id>  (152) 
CHEMBL1963787

>  <assay_description>  (152) 
PUBCHEM_BIOASSAY: Navigating the Kinome. (Class of assay: other) Panel member name: CAMK2B

>  <assay_type>  (152) 
F

>  <bao_endpoint>  (152) 
BAO_0000192

>  <bao_format>  (152) 
BAO_0000019

>  <bao_label>  (152) 
assay format

>  <canonical_smiles>  (152) 
CCCCOc1ccccc1CCc2cccc3nc(N)nc(N)c23

>  <data_validity_comment>  (152) 
nan

>  <data_validity_description>  (152) 
nan

>  <document_chembl_id>  (152) 
CHEMBL1201862

>  <document_journal>  (152) 
nan

>  <document_year>  (152) 
nan

>  <ligand_efficiency>  (152) 
nan

>  <molecule_pref_name>  (152) 
nan

>  <parent_molecule_chembl_id>  (152) 
CHEMBL1983255

>  <pchembl_value>  (152) 
5.6

>  <potential_duplicate>  (152) 
False

>  <qudt_units>  (152) 
http://www.openphacts.org/units/Nanomolar

>  <record_id>  (152) 
1585515

>  <relation>  (152) 
=

>  <src_id>  (152) 
7

>  <standard_flag>  (152) 
True

>  <standard_relation>  (152) 
=

>  <standard_text_value>  (152) 
nan

>  <standard_type>  (152) 
Ki

>  <standard_units>  (152) 
nM

>  <standard_upper_value>  (152) 
nan

>  <standard_value>  (152) 
2511.89

>  <target_chembl_id>  (152) 
CHEMBL4121

>  <target_organism>  (152) 
Homo sapiens

>  <target_pref_name>  (152) 
CaM kinase II beta

>  <target_tax_id>  (152) 
9606

>  <text_value>  (152) 
nan

>  <toid>  (152) 
nan

>  <type>  (152) 
pKi

>  <units>  (152) 
nan

>  <uo_units>  (152) 
UO_0000065

>  <upper_value>  (152) 
nan

>  <value>  (152) 
5.6

>  <SMILES>  (152) 
CCCCOc1ccccc1CCc2cccc3nc(N)nc(N)c23

>  <NAME>  (152) 
CHEMBL1983255

>  <FILTER>  (152) 
OK

>  <MW>  (152) 
336.439

>  <LogP>  (152) 
3.7583

>  <HBD>  (152) 
2

>  <HBA>  (152) 
5

>  <TPSA>  (152) 
87.05

>  <Label>  (152) 
CAMK2B

$$$$
CHEMBL1986499
     RDKit          2D

 29 33  0  0  0  0  0  0  0  0999 V2000
   -2.6401   -3.1891    0.0000 N   0  0  0  0  0  0  0  0  0  0  0  0
   -1.2135   -2.7256    0.0000 C   0  0  0  0  0  0  0  0  0  0  0  0
   -0.0000   -3.6073    0.0000 N   0  0  0  0  0  0  0  0  0  0  0  0
    1.2135   -2.7256    0.0000 N   0  0  0  0  0  0  0  0  0  0  0  0
    0.7500   -1.2990    0.0000 C   0  0  0  0  0  0  0  0  0  0  0  0
    1.5000    0.0000    0.0000 C   0  0  0  0  0  0  0  0  0  0  0  0
    0.7500    1.2990    0.0000 C   0  0  0  0  0  0  0  0  0  0  0  0
   -0.7500    1.2990    0.0000 C   0  0  0  0  0  0  0  0  0  0  0  0
   -1.5000    0.0000    0.0000 C   0  0  0  0  0  0  0  0  0  0  0  0
   -0.7500   -1.2990    0.0000 C   0  0  0  0  0  0  0  0  0  0  0  0
   -1.5000    2.5981    0.0000 C   0  0  0  0  0  0  0  0  0  0  0  0
   -2.9918    2.7549    0.0000 N   0  0  0  0  0  0  0  0  0  0  0  0
   -3.3037    4.2221    0.0000 N   0  0  0  0  0  0  0  0  0  0  0  0
   -2.0046    4.9721    0.0000 N   0  0  0  0  0  0  0  0  0  0  0  0
   -1.8478    6.4639    0.0000 C   0  0  0  0  0  0  0  0  0  0  0  0
   -3.0613    7.3456    0.0000 C   0  0  0  0  0  0  0  0  0  0  0  0
   -4.4317    6.7354    0.0000 C   0  0  0  0  0  0  0  0  0  0  0  0
   -5.6452    7.6171    0.0000 C   0  0  0  0  0  0  0  0  0  0  0  0
   -5.4884    9.1089    0.0000 C   0  0  0  0  0  0  0  0  0  0  0  0
   -4.1181    9.7190    0.0000 C   0  0  0  0  0  0  0  0  0  0  0  0
   -2.9046    8.8373    0.0000 C   0  0  0  0  0  0  0  0  0  0  0  0
   -0.8899    3.9684    0.0000 C   0  0  0  0  0  0  0  0  0  0  0  0
    0.5773    4.2803    0.0000 C   0  0  0  0  0  0  0  0  0  0  0  0
    1.5810    3.1655    0.0000 C   0  0  0  0  0  0  0  0  0  0  0  0
    3.0482    3.4774    0.0000 C   0  0  0  0  0  0  0  0  0  0  0  0
    3.5118    4.9040    0.0000 C   0  0  0  0  0  0  0  0  0  0  0  0
    4.9790    5.2159    0.0000 F   0  0  0  0  0  0  0  0  0  0  0  0
    2.5081    6.0187    0.0000 C   0  0  0  0  0  0  0  0  0  0  0  0
    1.0409    5.7068    0.0000 C   0  0  0  0  0  0  0  0  0  0  0  0
  1  2  1  0
  2  3  2  0
  3  4  1  0
  4  5  1  0
  5  6  2  0
  6  7  1  0
  7  8  2  0
  8  9  1  0
  9 10  2  0
  8 11  1  0
 11 12  1  0
 12 13  2  0
 13 14  1  0
 14 15  1  0
 15 16  1  0
 16 17  2  0
 17 18  1  0
 18 19  2  0
 19 20  1  0
 20 21  2  0
 14 22  1  0
 22 23  1  0
 23 24  2  0
 24 25  1  0
 25 26  2  0
 26 27  1  0
 26 28  1  0
 28 29  2  0
 10  2  1  0
 10  5  1  0
 22 11  2  0
 21 16  1  0
 29 23  1  0
M  END
>  <activity_comment>  (153) 
active

>  <activity_id>  (153) 
9626304

>  <activity_properties>  (153) 
[]

>  <assay_chembl_id>  (153) 
CHEMBL1963787

>  <assay_description>  (153) 
PUBCHEM_BIOASSAY: Navigating the Kinome. (Class of assay: other) Panel member name: CAMK2B

>  <assay_type>  (153) 
F

>  <bao_endpoint>  (153) 
BAO_0000192

>  <bao_format>  (153) 
BAO_0000019

>  <bao_label>  (153) 
assay format

>  <canonical_smiles>  (153) 
Nc1n[nH]c2ccc(cc12)c3nnn(Cc4ccccc4)c3c5ccc(F)cc5

>  <data_validity_comment>  (153) 
nan

>  <data_validity_description>  (153) 
nan

>  <document_chembl_id>  (153) 
CHEMBL1201862

>  <document_journal>  (153) 
nan

>  <document_year>  (153) 
nan

>  <ligand_efficiency>  (153) 
nan

>  <molecule_pref_name>  (153) 
nan

>  <parent_molecule_chembl_id>  (153) 
CHEMBL1986499

>  <pchembl_value>  (153) 
5.7

>  <potential_duplicate>  (153) 
False

>  <qudt_units>  (153) 
http://www.openphacts.org/units/Nanomolar

>  <record_id>  (153) 
1584348

>  <relation>  (153) 
=

>  <src_id>  (153) 
7

>  <standard_flag>  (153) 
True

>  <standard_relation>  (153) 
=

>  <standard_text_value>  (153) 
nan

>  <standard_type>  (153) 
Ki

>  <standard_units>  (153) 
nM

>  <standard_upper_value>  (153) 
nan

>  <standard_value>  (153) 
1995.26

>  <target_chembl_id>  (153) 
CHEMBL4121

>  <target_organism>  (153) 
Homo sapiens

>  <target_pref_name>  (153) 
CaM kinase II beta

>  <target_tax_id>  (153) 
9606

>  <text_value>  (153) 
nan

>  <toid>  (153) 
nan

>  <type>  (153) 
pKi

>  <units>  (153) 
nan

>  <uo_units>  (153) 
UO_0000065

>  <upper_value>  (153) 
nan

>  <value>  (153) 
5.7

>  <SMILES>  (153) 
Nc1n[nH]c2ccc(cc12)c3nnn(Cc4ccccc4)c3c5ccc(F)cc5

>  <NAME>  (153) 
CHEMBL1986499

>  <FILTER>  (153) 
OK

>  <MW>  (153) 
384.418

>  <LogP>  (153) 
4.258

>  <HBD>  (153) 
2

>  <HBA>  (153) 
5

>  <TPSA>  (153) 
85.41

>  <Label>  (153) 
CAMK2B

$$$$
CHEMBL2000393
     RDKit          2D

 31 36  0  0  0  0  0  0  0  0999 V2000
   11.1150   -4.1209    0.0000 F   0  0  0  0  0  0  0  0  0  0  0  0
   10.3650   -2.8219    0.0000 C   0  0  0  0  0  0  0  0  0  0  0  0
   11.1150   -1.5229    0.0000 C   0  0  0  0  0  0  0  0  0  0  0  0
   10.3650   -0.2238    0.0000 C   0  0  0  0  0  0  0  0  0  0  0  0
    8.8650   -0.2238    0.0000 C   0  0  0  0  0  0  0  0  0  0  0  0
    7.8613    0.8909    0.0000 N   0  0  0  0  0  0  0  0  0  0  0  0
    6.4910    0.2808    0.0000 C   0  0  0  0  0  0  0  0  0  0  0  0
    6.6478   -1.2110    0.0000 N   0  0  0  0  0  0  0  0  0  0  0  0
    5.5331   -2.2147    0.0000 C   0  0  0  0  0  0  0  0  0  0  0  0
    5.8450   -3.6819    0.0000 N   0  0  0  0  0  0  0  0  0  0  0  0
    4.7302   -4.6856    0.0000 C   0  0  0  0  0  0  0  0  0  0  0  0
    3.3037   -4.2221    0.0000 C   0  0  0  0  0  0  0  0  0  0  0  0
    2.0046   -4.9721    0.0000 N   0  0  0  0  0  0  0  0  0  0  0  0
    0.8899   -3.9684    0.0000 C   0  0  0  0  0  0  0  0  0  0  0  0
   -0.5773   -4.2803    0.0000 O   0  0  0  0  0  0  0  0  0  0  0  0
    1.5000   -2.5981    0.0000 N   0  0  0  0  0  0  0  0  0  0  0  0
    0.7500   -1.2990    0.0000 C   0  0  0  0  0  0  0  0  0  0  0  0
    1.5000    0.0000    0.0000 C   0  0  0  0  0  0  0  0  0  0  0  0
    0.7500    1.2990    0.0000 C   0  0  0  0  0  0  0  0  0  0  0  0
   -0.7500    1.2990    0.0000 O   0  0  0  0  0  0  0  0  0  0  0  0
   -1.5000    0.0000    0.0000 C   0  0  0  0  0  0  0  0  0  0  0  0
   -3.0000    0.0000    0.0000 C   0  0  0  0  0  0  0  0  0  0  0  0
   -3.7500    1.2990    0.0000 F   0  0  0  0  0  0  0  0  0  0  0  0
   -3.7500   -1.2990    0.0000 C   0  0  0  0  0  0  0  0  0  0  0  0
   -3.0000   -2.5981    0.0000 C   0  0  0  0  0  0  0  0  0  0  0  0
   -1.5000   -2.5981    0.0000 C   0  0  0  0  0  0  0  0  0  0  0  0
   -0.7500   -1.2990    0.0000 C   0  0  0  0  0  0  0  0  0  0  0  0
    2.9918   -2.7549    0.0000 C   0  0  0  0  0  0  0  0  0  0  0  0
    4.1065   -1.7512    0.0000 N   0  0  0  0  0  0  0  0  0  0  0  0
    8.1150   -1.5229    0.0000 C   0  0  0  0  0  0  0  0  0  0  0  0
    8.8650   -2.8219    0.0000 C   0  0  0  0  0  0  0  0  0  0  0  0
  1  2  1  0
  2  3  2  0
  3  4  1  0
  4  5  2  0
  5  6  1  0
  6  7  2  0
  7  8  1  0
  8  9  1  0
  9 10  2  0
 10 11  1  0
 11 12  2  0
 12 13  1  0
 13 14  1  0
 14 15  2  0
 14 16  1  0
 16 17  1  0
 17 18  1  0
 18 19  1  0
 19 20  1  0
 20 21  1  0
 21 22  2  0
 22 23  1  0
 22 24  1  0
 24 25  2  0
 25 26  1  0
 26 27  2  0
 16 28  1  0
 28 29  2  0
  8 30  1  0
 30 31  2  0
 31  2  1  0
 30  5  1  0
 29  9  1  0
 28 12  1  0
 27 17  1  0
 27 21  1  0
M  END
>  <activity_comment>  (154) 
active

>  <activity_id>  (154) 
9626307

>  <activity_properties>  (154) 
[]

>  <assay_chembl_id>  (154) 
CHEMBL1963787

>  <assay_description>  (154) 
PUBCHEM_BIOASSAY: Navigating the Kinome. (Class of assay: other) Panel member name: CAMK2B

>  <assay_type>  (154) 
F

>  <bao_endpoint>  (154) 
BAO_0000192

>  <bao_format>  (154) 
BAO_0000019

>  <bao_label>  (154) 
assay format

>  <canonical_smiles>  (154) 
Fc1ccc2ncn(c3ncc4NC(=O)N(C5CCOc6c(F)cccc56)c4n3)c2c1

>  <data_validity_comment>  (154) 
nan

>  <data_validity_description>  (154) 
nan

>  <document_chembl_id>  (154) 
CHEMBL1201862

>  <document_journal>  (154) 
nan

>  <document_year>  (154) 
nan

>  <ligand_efficiency>  (154) 
nan

>  <molecule_pref_name>  (154) 
nan

>  <parent_molecule_chembl_id>  (154) 
CHEMBL2000393

>  <pchembl_value>  (154) 
5.4

>  <potential_duplicate>  (154) 
False

>  <qudt_units>  (154) 
http://www.openphacts.org/units/Nanomolar

>  <record_id>  (154) 
1585485

>  <relation>  (154) 
=

>  <src_id>  (154) 
7

>  <standard_flag>  (154) 
True

>  <standard_relation>  (154) 
=

>  <standard_text_value>  (154) 
nan

>  <standard_type>  (154) 
Ki

>  <standard_units>  (154) 
nM

>  <standard_upper_value>  (154) 
nan

>  <standard_value>  (154) 
3981.07

>  <target_chembl_id>  (154) 
CHEMBL4121

>  <target_organism>  (154) 
Homo sapiens

>  <target_pref_name>  (154) 
CaM kinase II beta

>  <target_tax_id>  (154) 
9606

>  <text_value>  (154) 
nan

>  <toid>  (154) 
nan

>  <type>  (154) 
pKi

>  <units>  (154) 
nan

>  <uo_units>  (154) 
UO_0000065

>  <upper_value>  (154) 
nan

>  <value>  (154) 
5.4

>  <SMILES>  (154) 
Fc1ccc2ncn(c3ncc4NC(=O)N(C5CCOc6c(F)cccc56)c4n3)c2c1

>  <NAME>  (154) 
CHEMBL2000393

>  <FILTER>  (154) 
OK

>  <MW>  (154) 
420.379

>  <LogP>  (154) 
3.1086

>  <HBD>  (154) 
1

>  <HBA>  (154) 
7

>  <TPSA>  (154) 
90.62

>  <Label>  (154) 
CAMK2B

$$$$
CHEMBL2004311
     RDKit          2D

 29 32  0  0  0  0  0  0  0  0999 V2000
    3.7500  -14.2894    0.0000 C   0  0  0  0  0  0  0  0  0  0  0  0
    3.0000  -12.9904    0.0000 C   0  0  0  0  0  0  0  0  0  0  0  0
    1.5000  -12.9904    0.0000 C   0  0  0  0  0  0  0  0  0  0  0  0
    0.7500  -11.6913    0.0000 C   0  0  0  0  0  0  0  0  0  0  0  0
   -0.7500  -11.6913    0.0000 C   0  0  0  0  0  0  0  0  0  0  0  0
    1.5000  -10.3923    0.0000 C   0  0  0  0  0  0  0  0  0  0  0  0
    3.0000  -10.3923    0.0000 C   0  0  0  0  0  0  0  0  0  0  0  0
    3.7500   -9.0933    0.0000 N   0  0  0  0  0  0  0  0  0  0  0  0
    3.0000   -7.7942    0.0000 C   0  0  0  0  0  0  0  0  0  0  0  0
    1.5000   -7.7942    0.0000 O   0  0  0  0  0  0  0  0  0  0  0  0
    3.7500   -6.4952    0.0000 N   0  0  0  0  0  0  0  0  0  0  0  0
    3.0000   -5.1962    0.0000 C   0  0  0  0  0  0  0  0  0  0  0  0
    3.7500   -3.8971    0.0000 C   0  0  0  0  0  0  0  0  0  0  0  0
    3.0000   -2.5981    0.0000 C   0  0  0  0  0  0  0  0  0  0  0  0
    1.5000   -2.5981    0.0000 C   0  0  0  0  0  0  0  0  0  0  0  0
    0.7500   -3.8971    0.0000 C   0  0  0  0  0  0  0  0  0  0  0  0
   -0.7500   -3.8971    0.0000 C   0  0  0  0  0  0  0  0  0  0  0  0
    1.5000   -5.1962    0.0000 C   0  0  0  0  0  0  0  0  0  0  0  0
    0.7500   -1.2990    0.0000 C   0  0  0  0  0  0  0  0  0  0  0  0
    1.5000    0.0000    0.0000 C   0  0  0  0  0  0  0  0  0  0  0  0
    0.7500    1.2990    0.0000 C   0  0  0  0  0  0  0  0  0  0  0  0
   -0.7500    1.2990    0.0000 C   0  0  0  0  0  0  0  0  0  0  0  0
   -1.5000    0.0000    0.0000 C   0  0  0  0  0  0  0  0  0  0  0  0
   -2.9672   -0.3119    0.0000 C   0  0  0  0  0  0  0  0  0  0  0  0
   -4.0819    0.6918    0.0000 O   0  0  0  0  0  0  0  0  0  0  0  0
   -3.1240   -1.8037    0.0000 N   0  0  0  0  0  0  0  0  0  0  0  0
   -1.7537   -2.4138    0.0000 C   0  0  0  0  0  0  0  0  0  0  0  0
   -0.7500   -1.2990    0.0000 C   0  0  0  0  0  0  0  0  0  0  0  0
    3.7500  -11.6913    0.0000 C   0  0  0  0  0  0  0  0  0  0  0  0
  1  2  1  0
  2  3  2  0
  3  4  1  0
  4  5  1  0
  4  6  2  0
  6  7  1  0
  7  8  1  0
  8  9  1  0
  9 10  2  0
  9 11  1  0
 11 12  1  0
 12 13  2  0
 13 14  1  0
 14 15  2  0
 15 16  1  0
 16 17  1  0
 16 18  2  0
 15 19  1  0
 19 20  2  0
 20 21  1  0
 21 22  2  0
 22 23  1  0
 23 24  1  0
 24 25  2  0
 24 26  1  0
 26 27  1  0
 27 28  1  0
  7 29  2  0
 29  2  1  0
 18 12  1  0
 28 19  1  0
 28 23  2  0
M  END
>  <activity_comment>  (155) 
active

>  <activity_id>  (155) 
9626308

>  <activity_properties>  (155) 
[]

>  <assay_chembl_id>  (155) 
CHEMBL1963787

>  <assay_description>  (155) 
PUBCHEM_BIOASSAY: Navigating the Kinome. (Class of assay: other) Panel member name: CAMK2B

>  <assay_type>  (155) 
F

>  <bao_endpoint>  (155) 
BAO_0000192

>  <bao_format>  (155) 
BAO_0000019

>  <bao_label>  (155) 
assay format

>  <canonical_smiles>  (155) 
Cc1cc(C)cc(NC(=O)Nc2ccc(c(C)c2)c3cccc4C(=O)NCc34)c1

>  <data_validity_comment>  (155) 
nan

>  <data_validity_description>  (155) 
nan

>  <document_chembl_id>  (155) 
CHEMBL1201862

>  <document_journal>  (155) 
nan

>  <document_year>  (155) 
nan

>  <ligand_efficiency>  (155) 
nan

>  <molecule_pref_name>  (155) 
nan

>  <parent_molecule_chembl_id>  (155) 
CHEMBL2004311

>  <pchembl_value>  (155) 
5.1

>  <potential_duplicate>  (155) 
False

>  <qudt_units>  (155) 
http://www.openphacts.org/units/Nanomolar

>  <record_id>  (155) 
1584160

>  <relation>  (155) 
=

>  <src_id>  (155) 
7

>  <standard_flag>  (155) 
True

>  <standard_relation>  (155) 
=

>  <standard_text_value>  (155) 
nan

>  <standard_type>  (155) 
Ki

>  <standard_units>  (155) 
nM

>  <standard_upper_value>  (155) 
nan

>  <standard_value>  (155) 
7943.28

>  <target_chembl_id>  (155) 
CHEMBL4121

>  <target_organism>  (155) 
Homo sapiens

>  <target_pref_name>  (155) 
CaM kinase II beta

>  <target_tax_id>  (155) 
9606

>  <text_value>  (155) 
nan

>  <toid>  (155) 
nan

>  <type>  (155) 
pKi

>  <units>  (155) 
nan

>  <uo_units>  (155) 
UO_0000065

>  <upper_value>  (155) 
nan

>  <value>  (155) 
5.1

>  <SMILES>  (155) 
Cc1cc(C)cc(NC(=O)Nc2ccc(c(C)c2)c3cccc4C(=O)NCc34)c1

>  <NAME>  (155) 
CHEMBL2004311

>  <FILTER>  (155) 
OK

>  <MW>  (155) 
385.467

>  <LogP>  (155) 
5.16626

>  <HBD>  (155) 
3

>  <HBA>  (155) 
2

>  <TPSA>  (155) 
70.23

>  <Label>  (155) 
CAMK2B

$$$$
CHEMBL1992634
     RDKit          2D

 16 18  0  0  0  0  0  0  0  0999 V2000
    3.0000    0.0000    0.0000 Br  0  0  0  0  0  0  0  0  0  0  0  0
    1.5000    0.0000    0.0000 C   0  0  0  0  0  0  0  0  0  0  0  0
    0.7500   -1.2990    0.0000 C   0  0  0  0  0  0  0  0  0  0  0  0
   -0.7500   -1.2990    0.0000 N   0  0  0  0  0  0  0  0  0  0  0  0
   -1.5000    0.0000    0.0000 C   0  0  0  0  0  0  0  0  0  0  0  0
   -2.9672    0.3119    0.0000 N   0  0  0  0  0  0  0  0  0  0  0  0
   -3.1240    1.8037    0.0000 C   0  0  0  0  0  0  0  0  0  0  0  0
   -1.7537    2.4138    0.0000 C   0  0  0  0  0  0  0  0  0  0  0  0
   -1.4418    3.8810    0.0000 C   0  0  0  0  0  0  0  0  0  0  0  0
   -0.0152    4.3445    0.0000 C   0  0  0  0  0  0  0  0  0  0  0  0
    0.2966    5.8117    0.0000 C   0  0  0  0  0  0  0  0  0  0  0  0
   -0.8181    6.8154    0.0000 C   0  0  0  0  0  0  0  0  0  0  0  0
   -2.2447    6.3519    0.0000 C   0  0  0  0  0  0  0  0  0  0  0  0
   -2.5565    4.8847    0.0000 C   0  0  0  0  0  0  0  0  0  0  0  0
   -0.7500    1.2990    0.0000 C   0  0  0  0  0  0  0  0  0  0  0  0
    0.7500    1.2990    0.0000 C   0  0  0  0  0  0  0  0  0  0  0  0
  1  2  1  0
  2  3  2  0
  3  4  1  0
  4  5  2  0
  5  6  1  0
  6  7  1  0
  7  8  2  0
  8  9  1  0
  9 10  2  0
 10 11  1  0
 11 12  2  0
 12 13  1  0
 13 14  2  0
  8 15  1  0
 15 16  2  0
 16  2  1  0
 15  5  1  0
 14  9  1  0
M  END
>  <activity_comment>  (156) 
active

>  <activity_id>  (156) 
9626309

>  <activity_properties>  (156) 
[]

>  <assay_chembl_id>  (156) 
CHEMBL1963787

>  <assay_description>  (156) 
PUBCHEM_BIOASSAY: Navigating the Kinome. (Class of assay: other) Panel member name: CAMK2B

>  <assay_type>  (156) 
F

>  <bao_endpoint>  (156) 
BAO_0000192

>  <bao_format>  (156) 
BAO_0000019

>  <bao_label>  (156) 
assay format

>  <canonical_smiles>  (156) 
Brc1cnc2[nH]cc(c3ccccc3)c2c1

>  <data_validity_comment>  (156) 
nan

>  <data_validity_description>  (156) 
nan

>  <document_chembl_id>  (156) 
CHEMBL1201862

>  <document_journal>  (156) 
nan

>  <document_year>  (156) 
nan

>  <ligand_efficiency>  (156) 
nan

>  <molecule_pref_name>  (156) 
nan

>  <parent_molecule_chembl_id>  (156) 
CHEMBL1992634

>  <pchembl_value>  (156) 
6.4

>  <potential_duplicate>  (156) 
False

>  <qudt_units>  (156) 
http://www.openphacts.org/units/Nanomolar

>  <record_id>  (156) 
1584097

>  <relation>  (156) 
=

>  <src_id>  (156) 
7

>  <standard_flag>  (156) 
True

>  <standard_relation>  (156) 
=

>  <standard_text_value>  (156) 
nan

>  <standard_type>  (156) 
Ki

>  <standard_units>  (156) 
nM

>  <standard_upper_value>  (156) 
nan

>  <standard_value>  (156) 
398.11

>  <target_chembl_id>  (156) 
CHEMBL4121

>  <target_organism>  (156) 
Homo sapiens

>  <target_pref_name>  (156) 
CaM kinase II beta

>  <target_tax_id>  (156) 
9606

>  <text_value>  (156) 
nan

>  <toid>  (156) 
nan

>  <type>  (156) 
pKi

>  <units>  (156) 
nan

>  <uo_units>  (156) 
UO_0000065

>  <upper_value>  (156) 
nan

>  <value>  (156) 
6.4

>  <SMILES>  (156) 
Brc1cnc2[nH]cc(c3ccccc3)c2c1

>  <NAME>  (156) 
CHEMBL1992634

>  <FILTER>  (156) 
OK

>  <MW>  (156) 
273.133

>  <LogP>  (156) 
3.9924

>  <HBD>  (156) 
1

>  <HBA>  (156) 
1

>  <TPSA>  (156) 
28.68

>  <Label>  (156) 
CAMK2B

$$$$
CHEMBL1976396
     RDKit          2D

 45 49  0  0  0  0  0  0  0  0999 V2000
  -13.1524   -8.9572    0.0000 C   0  0  0  0  0  0  0  0  0  0  0  0
  -13.4643   -7.4900    0.0000 C   0  0  0  0  0  0  0  0  0  0  0  0
  -14.8909   -7.0265    0.0000 C   0  0  0  0  0  0  0  0  0  0  0  0
  -15.2027   -5.5593    0.0000 C   0  0  0  0  0  0  0  0  0  0  0  0
  -14.0880   -4.5556    0.0000 C   0  0  0  0  0  0  0  0  0  0  0  0
  -12.6614   -5.0191    0.0000 C   0  0  0  0  0  0  0  0  0  0  0  0
  -12.3496   -6.4863    0.0000 C   0  0  0  0  0  0  0  0  0  0  0  0
  -10.9230   -6.9498    0.0000 C   0  0  0  0  0  0  0  0  0  0  0  0
  -10.6111   -8.4171    0.0000 C   0  0  0  0  0  0  0  0  0  0  0  0
   -9.1845   -8.8806    0.0000 C   0  0  0  0  0  0  0  0  0  0  0  0
   -8.0698   -7.8769    0.0000 C   0  0  0  0  0  0  0  0  0  0  0  0
   -8.3817   -6.4097    0.0000 C   0  0  0  0  0  0  0  0  0  0  0  0
   -7.5000   -5.1962    0.0000 C   0  0  0  0  0  0  0  0  0  0  0  0
   -6.0000   -5.1962    0.0000 C   0  0  0  0  0  0  0  0  0  0  0  0
   -5.2500   -3.8971    0.0000 C   0  0  0  0  0  0  0  0  0  0  0  0
   -3.7500   -3.8971    0.0000 C   0  0  0  0  0  0  0  0  0  0  0  0
   -3.0000   -2.5981    0.0000 O   0  0  0  0  0  0  0  0  0  0  0  0
   -1.5000   -2.5981    0.0000 C   0  0  0  0  0  0  0  0  0  0  0  0
   -0.7500   -3.8971    0.0000 C   0  0  0  0  0  0  0  0  0  0  0  0
    0.7500   -3.8971    0.0000 C   0  0  0  0  0  0  0  0  0  0  0  0
    1.5000   -2.5981    0.0000 C   0  0  0  0  0  0  0  0  0  0  0  0
    0.7500   -1.2990    0.0000 C   0  0  0  0  0  0  0  0  0  0  0  0
    1.5000    0.0000    0.0000 C   0  0  0  0  0  0  0  0  0  0  0  0
    0.7500    1.2990    0.0000 C   0  0  0  0  0  0  0  0  0  0  0  0
   -0.7500    1.2990    0.0000 C   0  0  0  0  0  0  0  0  0  0  0  0
   -1.5000    0.0000    0.0000 C   0  0  0  0  0  0  0  0  0  0  0  0
   -0.7500   -1.2990    0.0000 C   0  0  0  0  0  0  0  0  0  0  0  0
   -8.3817   -3.9826    0.0000 C   0  0  0  0  0  0  0  0  0  0  0  0
   -9.8083   -4.4462    0.0000 N   0  0  0  0  0  0  0  0  0  0  0  0
   -9.8083   -5.9462    0.0000 C   0  0  0  0  0  0  0  0  0  0  0  0
   -7.9182   -2.5560    0.0000 C   0  0  0  0  0  0  0  0  0  0  0  0
   -6.4509   -2.2442    0.0000 O   0  0  0  0  0  0  0  0  0  0  0  0
   -8.9218   -1.4413    0.0000 O   0  0  0  0  0  0  0  0  0  0  0  0
  -16.6293   -5.0957    0.0000 C   0  0  0  0  0  0  0  0  0  0  0  0
  -17.7440   -6.0994    0.0000 O   0  0  0  0  0  0  0  0  0  0  0  0
  -16.9412   -3.6285    0.0000 N   0  0  0  0  0  0  0  0  0  0  0  0
  -18.3678   -3.1650    0.0000 C   0  0  0  0  0  0  0  0  0  0  0  0
  -18.6796   -1.6978    0.0000 C   0  0  0  0  0  0  0  0  0  0  0  0
  -20.1062   -1.2343    0.0000 O   0  0  0  0  0  0  0  0  0  0  0  0
  -20.4181    0.2330    0.0000 C   0  0  0  0  0  0  0  0  0  0  0  0
  -21.8447    0.6965    0.0000 C   0  0  0  0  0  0  0  0  0  0  0  0
  -22.1565    2.1637    0.0000 O   0  0  0  0  0  0  0  0  0  0  0  0
  -23.5831    2.6272    0.0000 C   0  0  0  0  0  0  0  0  0  0  0  0
  -23.8950    4.0945    0.0000 C   0  0  0  0  0  0  0  0  0  0  0  0
  -25.3216    4.5580    0.0000 N   0  0  0  0  0  0  0  0  0  0  0  0
  1  2  1  0
  2  3  2  0
  3  4  1  0
  4  5  2  0
  5  6  1  0
  6  7  2  0
  7  8  1  0
  8  9  2  0
  9 10  1  0
 10 11  2  0
 11 12  1  0
 12 13  1  0
 13 14  1  0
 14 15  1  0
 15 16  1  0
 16 17  1  0
 17 18  1  0
 18 19  2  0
 19 20  1  0
 20 21  2  0
 21 22  1  0
 22 23  2  0
 23 24  1  0
 24 25  2  0
 25 26  1  0
 26 27  2  0
 13 28  2  0
 28 29  1  0
 29 30  1  0
 28 31  1  0
 31 32  2  0
 31 33  1  0
  4 34  1  0
 34 35  2  0
 34 36  1  0
 36 37  1  0
 37 38  1  0
 38 39  1  0
 39 40  1  0
 40 41  1  0
 41 42  1  0
 42 43  1  0
 43 44  1  0
 44 45  1  0
  7  2  1  0
 30  8  1  0
 30 12  2  0
 27 18  1  0
 27 22  1  0
M  END
>  <activity_comment>  (157) 
active

>  <activity_id>  (157) 
9626316

>  <activity_properties>  (157) 
[]

>  <assay_chembl_id>  (157) 
CHEMBL1963787

>  <assay_description>  (157) 
PUBCHEM_BIOASSAY: Navigating the Kinome. (Class of assay: other) Panel member name: CAMK2B

>  <assay_type>  (157) 
F

>  <bao_endpoint>  (157) 
BAO_0000192

>  <bao_format>  (157) 
BAO_0000019

>  <bao_label>  (157) 
assay format

>  <canonical_smiles>  (157) 
Cc1cc(ccc1c2cccc3c(CCCOc4cccc5ccccc45)c([nH]c23)C(=O)O)C(=O)NCCOCCOCCN

>  <data_validity_comment>  (157) 
nan

>  <data_validity_description>  (157) 
nan

>  <document_chembl_id>  (157) 
CHEMBL1201862

>  <document_journal>  (157) 
nan

>  <document_year>  (157) 
nan

>  <ligand_efficiency>  (157) 
nan

>  <molecule_pref_name>  (157) 
nan

>  <parent_molecule_chembl_id>  (157) 
CHEMBL1976396

>  <pchembl_value>  (157) 
5.3

>  <potential_duplicate>  (157) 
False

>  <qudt_units>  (157) 
http://www.openphacts.org/units/Nanomolar

>  <record_id>  (157) 
1585056

>  <relation>  (157) 
=

>  <src_id>  (157) 
7

>  <standard_flag>  (157) 
True

>  <standard_relation>  (157) 
=

>  <standard_text_value>  (157) 
nan

>  <standard_type>  (157) 
Ki

>  <standard_units>  (157) 
nM

>  <standard_upper_value>  (157) 
nan

>  <standard_value>  (157) 
5011.87

>  <target_chembl_id>  (157) 
CHEMBL4121

>  <target_organism>  (157) 
Homo sapiens

>  <target_pref_name>  (157) 
CaM kinase II beta

>  <target_tax_id>  (157) 
9606

>  <text_value>  (157) 
nan

>  <toid>  (157) 
nan

>  <type>  (157) 
pKi

>  <units>  (157) 
nan

>  <uo_units>  (157) 
UO_0000065

>  <upper_value>  (157) 
nan

>  <value>  (157) 
5.3

>  <SMILES>  (157) 
Cc1cc(ccc1c2cccc3c(CCCOc4cccc5ccccc45)c([nH]c23)C(=O)O)C(=O)NCCOCCOCCN

>  <NAME>  (157) 
CHEMBL1976396

>  <FILTER>  (157) 
OK

>  <MW>  (157) 
609.723

>  <LogP>  (157) 
5.72802

>  <HBD>  (157) 
4

>  <HBA>  (157) 
6

>  <TPSA>  (157) 
135.9

>  <Label>  (157) 
CAMK2B

$$$$
CHEMBL1988594
     RDKit          2D

 29 32  0  0  0  0  0  0  0  0999 V2000
    3.0000    0.0000    0.0000 N   0  0  0  0  0  0  0  0  0  0  0  0
    1.5000    0.0000    0.0000 C   0  0  0  0  0  0  0  0  0  0  0  0
    0.7500   -1.2990    0.0000 N   0  0  0  0  0  0  0  0  0  0  0  0
   -0.7500   -1.2990    0.0000 C   0  0  0  0  0  0  0  0  0  0  0  0
   -1.5000    0.0000    0.0000 N   0  0  0  0  0  0  0  0  0  0  0  0
   -0.7500    1.2990    0.0000 C   0  0  0  0  0  0  0  0  0  0  0  0
   -1.2135    2.7256    0.0000 S   0  0  0  0  0  0  0  0  0  0  0  0
   -0.0000    3.6073    0.0000 C   0  0  0  0  0  0  0  0  0  0  0  0
    1.2135    2.7256    0.0000 C   0  0  0  0  0  0  0  0  0  0  0  0
    2.6401    3.1891    0.0000 C   0  0  0  0  0  0  0  0  0  0  0  0
    3.7548    2.1855    0.0000 O   0  0  0  0  0  0  0  0  0  0  0  0
    2.9520    4.6564    0.0000 N   0  0  0  0  0  0  0  0  0  0  0  0
    4.3786    5.1199    0.0000 C   0  0  0  0  0  0  0  0  0  0  0  0
    5.4933    4.1162    0.0000 C   0  0  0  0  0  0  0  0  0  0  0  0
    6.9199    4.5797    0.0000 C   0  0  0  0  0  0  0  0  0  0  0  0
    7.2317    6.0469    0.0000 C   0  0  0  0  0  0  0  0  0  0  0  0
    8.6583    6.5105    0.0000 N   0  0  0  0  0  0  0  0  0  0  0  0
    9.7730    5.5068    0.0000 C   0  0  0  0  0  0  0  0  0  0  0  0
    9.4612    4.0396    0.0000 O   0  0  0  0  0  0  0  0  0  0  0  0
   11.1996    5.9703    0.0000 N   0  0  0  0  0  0  0  0  0  0  0  0
   12.3143    4.9666    0.0000 C   0  0  0  0  0  0  0  0  0  0  0  0
   12.0025    3.4994    0.0000 C   0  0  0  0  0  0  0  0  0  0  0  0
   13.1172    2.4957    0.0000 C   0  0  0  0  0  0  0  0  0  0  0  0
   14.5438    2.9592    0.0000 C   0  0  0  0  0  0  0  0  0  0  0  0
   14.8556    4.4264    0.0000 C   0  0  0  0  0  0  0  0  0  0  0  0
   13.7409    5.4301    0.0000 C   0  0  0  0  0  0  0  0  0  0  0  0
    6.1170    7.0506    0.0000 C   0  0  0  0  0  0  0  0  0  0  0  0
    4.6904    6.5871    0.0000 C   0  0  0  0  0  0  0  0  0  0  0  0
    0.7500    1.2990    0.0000 C   0  0  0  0  0  0  0  0  0  0  0  0
  1  2  1  0
  2  3  2  0
  3  4  1  0
  4  5  2  0
  5  6  1  0
  6  7  1  0
  7  8  1  0
  8  9  2  0
  9 10  1  0
 10 11  2  0
 10 12  1  0
 12 13  1  0
 13 14  2  0
 14 15  1  0
 15 16  2  0
 16 17  1  0
 17 18  1  0
 18 19  2  0
 18 20  1  0
 20 21  1  0
 21 22  2  0
 22 23  1  0
 23 24  2  0
 24 25  1  0
 25 26  2  0
 16 27  1  0
 27 28  2  0
  9 29  1  0
 29  2  1  0
 29  6  2  0
 28 13  1  0
 26 21  1  0
M  END
>  <activity_comment>  (158) 
active

>  <activity_id>  (158) 
9626317

>  <activity_properties>  (158) 
[]

>  <assay_chembl_id>  (158) 
CHEMBL1963787

>  <assay_description>  (158) 
PUBCHEM_BIOASSAY: Navigating the Kinome. (Class of assay: other) Panel member name: CAMK2B

>  <assay_type>  (158) 
F

>  <bao_endpoint>  (158) 
BAO_0000192

>  <bao_format>  (158) 
BAO_0000019

>  <bao_label>  (158) 
assay format

>  <canonical_smiles>  (158) 
Nc1ncnc2scc(C(=O)Nc3ccc(NC(=O)Nc4ccccc4)cc3)c12

>  <data_validity_comment>  (158) 
nan

>  <data_validity_description>  (158) 
nan

>  <document_chembl_id>  (158) 
CHEMBL1201862

>  <document_journal>  (158) 
nan

>  <document_year>  (158) 
nan

>  <ligand_efficiency>  (158) 
nan

>  <molecule_pref_name>  (158) 
nan

>  <parent_molecule_chembl_id>  (158) 
CHEMBL1988594

>  <pchembl_value>  (158) 
5.3

>  <potential_duplicate>  (158) 
False

>  <qudt_units>  (158) 
http://www.openphacts.org/units/Nanomolar

>  <record_id>  (158) 
1584234

>  <relation>  (158) 
=

>  <src_id>  (158) 
7

>  <standard_flag>  (158) 
True

>  <standard_relation>  (158) 
=

>  <standard_text_value>  (158) 
nan

>  <standard_type>  (158) 
Ki

>  <standard_units>  (158) 
nM

>  <standard_upper_value>  (158) 
nan

>  <standard_value>  (158) 
5011.87

>  <target_chembl_id>  (158) 
CHEMBL4121

>  <target_organism>  (158) 
Homo sapiens

>  <target_pref_name>  (158) 
CaM kinase II beta

>  <target_tax_id>  (158) 
9606

>  <text_value>  (158) 
nan

>  <toid>  (158) 
nan

>  <type>  (158) 
pKi

>  <units>  (158) 
nan

>  <uo_units>  (158) 
UO_0000065

>  <upper_value>  (158) 
nan

>  <value>  (158) 
5.3

>  <SMILES>  (158) 
Nc1ncnc2scc(C(=O)Nc3ccc(NC(=O)Nc4ccccc4)cc3)c12

>  <NAME>  (158) 
CHEMBL1988594

>  <FILTER>  (158) 
OK

>  <MW>  (158) 
404.455

>  <LogP>  (158) 
4.1698

>  <HBD>  (158) 
4

>  <HBA>  (158) 
6

>  <TPSA>  (158) 
122.03

>  <Label>  (158) 
CAMK2B

$$$$
CHEMBL1982874
     RDKit          2D

 29 34  0  0  0  0  0  0  0  0999 V2000
    4.4231   -2.5537    0.0000 N   0  0  0  0  0  0  0  0  0  0  0  0
    3.1240   -1.8037    0.0000 C   0  0  0  0  0  0  0  0  0  0  0  0
    1.7537   -2.4138    0.0000 N   0  0  0  0  0  0  0  0  0  0  0  0
    0.7500   -1.2990    0.0000 C   0  0  0  0  0  0  0  0  0  0  0  0
   -0.7500   -1.2990    0.0000 C   0  0  0  0  0  0  0  0  0  0  0  0
   -1.5000    0.0000    0.0000 C   0  0  0  0  0  0  0  0  0  0  0  0
   -0.7500    1.2990    0.0000 C   0  0  0  0  0  0  0  0  0  0  0  0
    0.7500    1.2990    0.0000 C   0  0  0  0  0  0  0  0  0  0  0  0
    1.5000    0.0000    0.0000 C   0  0  0  0  0  0  0  0  0  0  0  0
    2.9672   -0.3119    0.0000 N   0  0  0  0  0  0  0  0  0  0  0  0
    4.0819    0.6918    0.0000 C   0  0  0  0  0  0  0  0  0  0  0  0
    3.7701    2.1590    0.0000 C   0  0  0  0  0  0  0  0  0  0  0  0
    4.2336    3.5856    0.0000 C   0  0  0  0  0  0  0  0  0  0  0  0
    2.7664    3.2738    0.0000 C   0  0  0  0  0  0  0  0  0  0  0  0
   -1.5000    2.5981    0.0000 C   0  0  0  0  0  0  0  0  0  0  0  0
   -2.9918    2.7549    0.0000 C   0  0  0  0  0  0  0  0  0  0  0  0
   -3.3037    4.2221    0.0000 N   0  0  0  0  0  0  0  0  0  0  0  0
   -2.0046    4.9721    0.0000 C   0  0  0  0  0  0  0  0  0  0  0  0
   -1.3945    6.3424    0.0000 S   0  0  0  0  0  0  0  0  0  0  0  0
    0.0973    6.1856    0.0000 C   0  0  0  0  0  0  0  0  0  0  0  0
    0.4091    4.7184    0.0000 C   0  0  0  0  0  0  0  0  0  0  0  0
   -0.8899    3.9684    0.0000 N   0  0  0  0  0  0  0  0  0  0  0  0
   -3.9955    1.6402    0.0000 C   0  0  0  0  0  0  0  0  0  0  0  0
   -5.4627    1.9520    0.0000 C   0  0  0  0  0  0  0  0  0  0  0  0
   -6.4664    0.8373    0.0000 C   0  0  0  0  0  0  0  0  0  0  0  0
   -6.0029   -0.5893    0.0000 C   0  0  0  0  0  0  0  0  0  0  0  0
   -7.0066   -1.7040    0.0000 F   0  0  0  0  0  0  0  0  0  0  0  0
   -4.5356   -0.9012    0.0000 C   0  0  0  0  0  0  0  0  0  0  0  0
   -3.5320    0.2136    0.0000 C   0  0  0  0  0  0  0  0  0  0  0  0
  1  2  1  0
  2  3  2  0
  3  4  1  0
  4  5  2  0
  5  6  1  0
  6  7  2  0
  7  8  1  0
  8  9  2  0
  9 10  1  0
 10 11  1  0
 11 12  1  0
 12 13  1  0
 13 14  1  0
  7 15  1  0
 15 16  2  0
 16 17  1  0
 17 18  2  0
 18 19  1  0
 19 20  1  0
 20 21  2  0
 21 22  1  0
 16 23  1  0
 23 24  2  0
 24 25  1  0
 25 26  2  0
 26 27  1  0
 26 28  1  0
 28 29  2  0
 10  2  1  0
  9  4  1  0
 14 12  1  0
 22 15  1  0
 22 18  1  0
 29 23  1  0
M  END
>  <activity_comment>  (159) 
active

>  <activity_id>  (159) 
9626322

>  <activity_properties>  (159) 
[]

>  <assay_chembl_id>  (159) 
CHEMBL1963787

>  <assay_description>  (159) 
PUBCHEM_BIOASSAY: Navigating the Kinome. (Class of assay: other) Panel member name: CAMK2B

>  <assay_type>  (159) 
F

>  <bao_endpoint>  (159) 
BAO_0000192

>  <bao_format>  (159) 
BAO_0000019

>  <bao_label>  (159) 
assay format

>  <canonical_smiles>  (159) 
Nc1nc2ccc(cc2n1CC3CC3)c4c(nc5sccn45)c6ccc(F)cc6

>  <data_validity_comment>  (159) 
nan

>  <data_validity_description>  (159) 
nan

>  <document_chembl_id>  (159) 
CHEMBL1201862

>  <document_journal>  (159) 
nan

>  <document_year>  (159) 
nan

>  <ligand_efficiency>  (159) 
nan

>  <molecule_pref_name>  (159) 
nan

>  <parent_molecule_chembl_id>  (159) 
CHEMBL1982874

>  <pchembl_value>  (159) 
5.1

>  <potential_duplicate>  (159) 
False

>  <qudt_units>  (159) 
http://www.openphacts.org/units/Nanomolar

>  <record_id>  (159) 
1584946

>  <relation>  (159) 
=

>  <src_id>  (159) 
7

>  <standard_flag>  (159) 
True

>  <standard_relation>  (159) 
=

>  <standard_text_value>  (159) 
nan

>  <standard_type>  (159) 
Ki

>  <standard_units>  (159) 
nM

>  <standard_upper_value>  (159) 
nan

>  <standard_value>  (159) 
7943.28

>  <target_chembl_id>  (159) 
CHEMBL4121

>  <target_organism>  (159) 
Homo sapiens

>  <target_pref_name>  (159) 
CaM kinase II beta

>  <target_tax_id>  (159) 
9606

>  <text_value>  (159) 
nan

>  <toid>  (159) 
nan

>  <type>  (159) 
pKi

>  <units>  (159) 
nan

>  <uo_units>  (159) 
UO_0000065

>  <upper_value>  (159) 
nan

>  <value>  (159) 
5.1

>  <SMILES>  (159) 
Nc1nc2ccc(cc2n1CC3CC3)c4c(nc5sccn45)c6ccc(F)cc6

>  <NAME>  (159) 
CHEMBL1982874

>  <FILTER>  (159) 
OK

>  <MW>  (159) 
403.486

>  <LogP>  (159) 
5.2108

>  <HBD>  (159) 
1

>  <HBA>  (159) 
6

>  <TPSA>  (159) 
61.14

>  <Label>  (159) 
CAMK2B

$$$$
CHEMBL394790
     RDKit          2D

 27 30  0  0  0  0  0  0  0  0999 V2000
    3.0000    0.0000    0.0000 N   0  0  0  0  0  0  0  0  0  0  0  0
    1.5000    0.0000    0.0000 C   0  0  0  0  0  0  0  0  0  0  0  0
    0.7500   -1.2990    0.0000 N   0  0  0  0  0  0  0  0  0  0  0  0
   -0.7500   -1.2990    0.0000 C   0  0  0  0  0  0  0  0  0  0  0  0
   -1.5000    0.0000    0.0000 C   0  0  0  0  0  0  0  0  0  0  0  0
   -0.7500    1.2990    0.0000 C   0  0  0  0  0  0  0  0  0  0  0  0
   -1.2135    2.7256    0.0000 S   0  0  0  0  0  0  0  0  0  0  0  0
   -0.0000    3.6073    0.0000 C   0  0  0  0  0  0  0  0  0  0  0  0
    1.2135    2.7256    0.0000 C   0  0  0  0  0  0  0  0  0  0  0  0
    2.6401    3.1891    0.0000 C   0  0  0  0  0  0  0  0  0  0  0  0
    3.7548    2.1855    0.0000 C   0  0  0  0  0  0  0  0  0  0  0  0
    5.1814    2.6490    0.0000 C   0  0  0  0  0  0  0  0  0  0  0  0
    5.4933    4.1162    0.0000 C   0  0  0  0  0  0  0  0  0  0  0  0
    6.9199    4.5797    0.0000 N   0  0  0  0  0  0  0  0  0  0  0  0
    8.0346    3.5760    0.0000 C   0  0  0  0  0  0  0  0  0  0  0  0
    7.7227    2.1088    0.0000 O   0  0  0  0  0  0  0  0  0  0  0  0
    9.4612    4.0396    0.0000 N   0  0  0  0  0  0  0  0  0  0  0  0
   10.5759    3.0359    0.0000 C   0  0  0  0  0  0  0  0  0  0  0  0
   10.2640    1.5686    0.0000 C   0  0  0  0  0  0  0  0  0  0  0  0
   11.3787    0.5649    0.0000 C   0  0  0  0  0  0  0  0  0  0  0  0
   12.8053    1.0285    0.0000 C   0  0  0  0  0  0  0  0  0  0  0  0
   13.1172    2.4957    0.0000 C   0  0  0  0  0  0  0  0  0  0  0  0
   14.5438    2.9592    0.0000 Cl  0  0  0  0  0  0  0  0  0  0  0  0
   12.0025    3.4994    0.0000 C   0  0  0  0  0  0  0  0  0  0  0  0
    4.3786    5.1199    0.0000 C   0  0  0  0  0  0  0  0  0  0  0  0
    2.9520    4.6564    0.0000 C   0  0  0  0  0  0  0  0  0  0  0  0
    0.7500    1.2990    0.0000 C   0  0  0  0  0  0  0  0  0  0  0  0
  1  2  1  0
  2  3  2  0
  3  4  1  0
  4  5  2  0
  5  6  1  0
  6  7  1  0
  7  8  1  0
  8  9  2  0
  9 10  1  0
 10 11  2  0
 11 12  1  0
 12 13  2  0
 13 14  1  0
 14 15  1  0
 15 16  2  0
 15 17  1  0
 17 18  1  0
 18 19  2  0
 19 20  1  0
 20 21  2  0
 21 22  1  0
 22 23  1  0
 22 24  2  0
 13 25  1  0
 25 26  2  0
  9 27  1  0
 27  2  1  0
 27  6  2  0
 26 10  1  0
 24 18  1  0
M  END
>  <activity_comment>  (160) 
active

>  <activity_id>  (160) 
9626337

>  <activity_properties>  (160) 
[]

>  <assay_chembl_id>  (160) 
CHEMBL1963787

>  <assay_description>  (160) 
PUBCHEM_BIOASSAY: Navigating the Kinome. (Class of assay: other) Panel member name: CAMK2B

>  <assay_type>  (160) 
F

>  <bao_endpoint>  (160) 
BAO_0000192

>  <bao_format>  (160) 
BAO_0000019

>  <bao_label>  (160) 
assay format

>  <canonical_smiles>  (160) 
Nc1nccc2scc(c3ccc(NC(=O)Nc4cccc(Cl)c4)cc3)c12

>  <data_validity_comment>  (160) 
nan

>  <data_validity_description>  (160) 
nan

>  <document_chembl_id>  (160) 
CHEMBL1201862

>  <document_journal>  (160) 
nan

>  <document_year>  (160) 
nan

>  <ligand_efficiency>  (160) 
nan

>  <molecule_pref_name>  (160) 
nan

>  <parent_molecule_chembl_id>  (160) 
CHEMBL394790

>  <pchembl_value>  (160) 
5.3

>  <potential_duplicate>  (160) 
False

>  <qudt_units>  (160) 
http://www.openphacts.org/units/Nanomolar

>  <record_id>  (160) 
1584241

>  <relation>  (160) 
=

>  <src_id>  (160) 
7

>  <standard_flag>  (160) 
True

>  <standard_relation>  (160) 
=

>  <standard_text_value>  (160) 
nan

>  <standard_type>  (160) 
Ki

>  <standard_units>  (160) 
nM

>  <standard_upper_value>  (160) 
nan

>  <standard_value>  (160) 
5011.87

>  <target_chembl_id>  (160) 
CHEMBL4121

>  <target_organism>  (160) 
Homo sapiens

>  <target_pref_name>  (160) 
CaM kinase II beta

>  <target_tax_id>  (160) 
9606

>  <text_value>  (160) 
nan

>  <toid>  (160) 
nan

>  <type>  (160) 
pKi

>  <units>  (160) 
nan

>  <uo_units>  (160) 
UO_0000065

>  <upper_value>  (160) 
nan

>  <value>  (160) 
5.3

>  <SMILES>  (160) 
Nc1nccc2scc(c3ccc(NC(=O)Nc4cccc(Cl)c4)cc3)c12

>  <NAME>  (160) 
CHEMBL394790

>  <FILTER>  (160) 
OK

>  <MW>  (160) 
394.887

>  <LogP>  (160) 
5.8429

>  <HBD>  (160) 
3

>  <HBA>  (160) 
4

>  <TPSA>  (160) 
80.04

>  <Label>  (160) 
CAMK2B

$$$$
CHEMBL1974702
     RDKit          2D

 17 19  0  0  0  0  0  0  0  0999 V2000
    3.0000    0.0000    0.0000 C   0  0  0  0  0  0  0  0  0  0  0  0
    1.5000    0.0000    0.0000 C   0  0  0  0  0  0  0  0  0  0  0  0
    0.7500   -1.2990    0.0000 N   0  0  0  0  0  0  0  0  0  0  0  0
   -0.7500   -1.2990    0.0000 C   0  0  0  0  0  0  0  0  0  0  0  0
   -1.5000    0.0000    0.0000 C   0  0  0  0  0  0  0  0  0  0  0  0
   -2.9672   -0.3119    0.0000 S   0  0  0  0  0  0  0  0  0  0  0  0
   -3.1240   -1.8037    0.0000 C   0  0  0  0  0  0  0  0  0  0  0  0
   -4.3375   -2.6853    0.0000 C   0  0  0  0  0  0  0  0  0  0  0  0
   -5.7079   -2.0752    0.0000 Br  0  0  0  0  0  0  0  0  0  0  0  0
   -4.1807   -4.1771    0.0000 C   0  0  0  0  0  0  0  0  0  0  0  0
   -2.8104   -4.7872    0.0000 C   0  0  0  0  0  0  0  0  0  0  0  0
   -1.5969   -3.9055    0.0000 C   0  0  0  0  0  0  0  0  0  0  0  0
   -0.2266   -4.5156    0.0000 Cl  0  0  0  0  0  0  0  0  0  0  0  0
   -1.7537   -2.4138    0.0000 C   0  0  0  0  0  0  0  0  0  0  0  0
   -0.7500    1.2990    0.0000 C   0  0  0  0  0  0  0  0  0  0  0  0
   -1.5000    2.5981    0.0000 O   0  0  0  0  0  0  0  0  0  0  0  0
    0.7500    1.2990    0.0000 O   0  0  0  0  0  0  0  0  0  0  0  0
  1  2  1  0
  2  3  2  0
  3  4  1  0
  4  5  2  0
  5  6  1  0
  6  7  1  0
  7  8  2  0
  8  9  1  0
  8 10  1  0
 10 11  2  0
 11 12  1  0
 12 13  1  0
 12 14  2  0
  5 15  1  0
 15 16  2  0
 15 17  1  0
 17  2  1  0
 14  4  1  0
 14  7  1  0
M  END
>  <activity_comment>  (161) 
active

>  <activity_id>  (161) 
9626340

>  <activity_properties>  (161) 
[]

>  <assay_chembl_id>  (161) 
CHEMBL1963787

>  <assay_description>  (161) 
PUBCHEM_BIOASSAY: Navigating the Kinome. (Class of assay: other) Panel member name: CAMK2B

>  <assay_type>  (161) 
F

>  <bao_endpoint>  (161) 
BAO_0000192

>  <bao_format>  (161) 
BAO_0000019

>  <bao_label>  (161) 
assay format

>  <canonical_smiles>  (161) 
CC1=Nc2c(sc3c(Br)ccc(Cl)c23)C(=O)O1

>  <data_validity_comment>  (161) 
nan

>  <data_validity_description>  (161) 
nan

>  <document_chembl_id>  (161) 
CHEMBL1201862

>  <document_journal>  (161) 
nan

>  <document_year>  (161) 
nan

>  <ligand_efficiency>  (161) 
nan

>  <molecule_pref_name>  (161) 
nan

>  <parent_molecule_chembl_id>  (161) 
CHEMBL1974702

>  <pchembl_value>  (161) 
5.2

>  <potential_duplicate>  (161) 
False

>  <qudt_units>  (161) 
http://www.openphacts.org/units/Nanomolar

>  <record_id>  (161) 
1585192

>  <relation>  (161) 
=

>  <src_id>  (161) 
7

>  <standard_flag>  (161) 
True

>  <standard_relation>  (161) 
=

>  <standard_text_value>  (161) 
nan

>  <standard_type>  (161) 
Ki

>  <standard_units>  (161) 
nM

>  <standard_upper_value>  (161) 
nan

>  <standard_value>  (161) 
6309.57

>  <target_chembl_id>  (161) 
CHEMBL4121

>  <target_organism>  (161) 
Homo sapiens

>  <target_pref_name>  (161) 
CaM kinase II beta

>  <target_tax_id>  (161) 
9606

>  <text_value>  (161) 
nan

>  <toid>  (161) 
nan

>  <type>  (161) 
pKi

>  <units>  (161) 
nan

>  <uo_units>  (161) 
UO_0000065

>  <upper_value>  (161) 
nan

>  <value>  (161) 
5.2

>  <SMILES>  (161) 
CC1=Nc2c(sc3c(Br)ccc(Cl)c23)C(=O)O1

>  <NAME>  (161) 
CHEMBL1974702

>  <FILTER>  (161) 
OK

>  <MW>  (161) 
330.59

>  <LogP>  (161) 
4.12702

>  <HBD>  (161) 
0

>  <HBA>  (161) 
4

>  <TPSA>  (161) 
43.1

>  <Label>  (161) 
CAMK2B

$$$$
CHEMBL1988153
     RDKit          2D

 26 29  0  0  0  0  0  0  0  0999 V2000
   -6.6572   -5.7276    0.0000 C   0  0  0  0  0  0  0  0  0  0  0  0
   -6.0471   -4.3573    0.0000 C   0  0  0  0  0  0  0  0  0  0  0  0
   -4.5798   -4.0454    0.0000 O   0  0  0  0  0  0  0  0  0  0  0  0
   -4.4231   -2.5537    0.0000 C   0  0  0  0  0  0  0  0  0  0  0  0
   -5.7934   -1.9435    0.0000 N   0  0  0  0  0  0  0  0  0  0  0  0
   -6.7971   -3.0583    0.0000 N   0  0  0  0  0  0  0  0  0  0  0  0
   -3.1240   -1.8037    0.0000 C   0  0  0  0  0  0  0  0  0  0  0  0
   -1.7537   -2.4138    0.0000 C   0  0  0  0  0  0  0  0  0  0  0  0
   -0.7500   -1.2990    0.0000 C   0  0  0  0  0  0  0  0  0  0  0  0
    0.7500   -1.2990    0.0000 C   0  0  0  0  0  0  0  0  0  0  0  0
    1.5000   -2.5981    0.0000 O   0  0  0  0  0  0  0  0  0  0  0  0
    3.0000   -2.5981    0.0000 C   0  0  0  0  0  0  0  0  0  0  0  0
    3.7500   -3.8971    0.0000 C   0  0  0  0  0  0  0  0  0  0  0  0
    5.2500   -3.8971    0.0000 C   0  0  0  0  0  0  0  0  0  0  0  0
    6.0000   -2.5981    0.0000 C   0  0  0  0  0  0  0  0  0  0  0  0
    5.2500   -1.2990    0.0000 C   0  0  0  0  0  0  0  0  0  0  0  0
    3.7500   -1.2990    0.0000 C   0  0  0  0  0  0  0  0  0  0  0  0
    7.5000   -2.5981    0.0000 C   0  0  0  0  0  0  0  0  0  0  0  0
    9.0000   -2.5981    0.0000 F   0  0  0  0  0  0  0  0  0  0  0  0
    7.5000   -4.0981    0.0000 F   0  0  0  0  0  0  0  0  0  0  0  0
    7.5000   -1.0981    0.0000 F   0  0  0  0  0  0  0  0  0  0  0  0
    1.5000    0.0000    0.0000 C   0  0  0  0  0  0  0  0  0  0  0  0
    0.7500    1.2990    0.0000 N   0  0  0  0  0  0  0  0  0  0  0  0
   -0.7500    1.2990    0.0000 C   0  0  0  0  0  0  0  0  0  0  0  0
   -1.5000    0.0000    0.0000 C   0  0  0  0  0  0  0  0  0  0  0  0
   -2.9672   -0.3119    0.0000 S   0  0  0  0  0  0  0  0  0  0  0  0
  1  2  1  0
  2  3  1  0
  3  4  1  0
  4  5  2  0
  5  6  1  0
  4  7  1  0
  7  8  2  0
  8  9  1  0
  9 10  2  0
 10 11  1  0
 11 12  1  0
 12 13  2  0
 13 14  1  0
 14 15  2  0
 15 16  1  0
 16 17  2  0
 15 18  1  0
 18 19  1  0
 18 20  1  0
 18 21  1  0
 10 22  1  0
 22 23  2  0
 23 24  1  0
 24 25  2  0
 25 26  1  0
  6  2  2  0
 26  7  1  0
 25  9  1  0
 17 12  1  0
M  END
>  <activity_comment>  (162) 
active

>  <activity_id>  (162) 
9626344

>  <activity_properties>  (162) 
[]

>  <assay_chembl_id>  (162) 
CHEMBL1963787

>  <assay_description>  (162) 
PUBCHEM_BIOASSAY: Navigating the Kinome. (Class of assay: other) Panel member name: CAMK2B

>  <assay_type>  (162) 
F

>  <bao_endpoint>  (162) 
BAO_0000192

>  <bao_format>  (162) 
BAO_0000019

>  <bao_label>  (162) 
assay format

>  <canonical_smiles>  (162) 
Cc1oc(nn1)c2cc3c(Oc4ccc(cc4)C(F)(F)F)cncc3s2

>  <data_validity_comment>  (162) 
nan

>  <data_validity_description>  (162) 
nan

>  <document_chembl_id>  (162) 
CHEMBL1201862

>  <document_journal>  (162) 
nan

>  <document_year>  (162) 
nan

>  <ligand_efficiency>  (162) 
nan

>  <molecule_pref_name>  (162) 
nan

>  <parent_molecule_chembl_id>  (162) 
CHEMBL1988153

>  <pchembl_value>  (162) 
5.5

>  <potential_duplicate>  (162) 
False

>  <qudt_units>  (162) 
http://www.openphacts.org/units/Nanomolar

>  <record_id>  (162) 
1585252

>  <relation>  (162) 
=

>  <src_id>  (162) 
7

>  <standard_flag>  (162) 
True

>  <standard_relation>  (162) 
=

>  <standard_text_value>  (162) 
nan

>  <standard_type>  (162) 
Ki

>  <standard_units>  (162) 
nM

>  <standard_upper_value>  (162) 
nan

>  <standard_value>  (162) 
3162.28

>  <target_chembl_id>  (162) 
CHEMBL4121

>  <target_organism>  (162) 
Homo sapiens

>  <target_pref_name>  (162) 
CaM kinase II beta

>  <target_tax_id>  (162) 
9606

>  <text_value>  (162) 
nan

>  <toid>  (162) 
nan

>  <type>  (162) 
pKi

>  <units>  (162) 
nan

>  <uo_units>  (162) 
UO_0000065

>  <upper_value>  (162) 
nan

>  <value>  (162) 
5.5

>  <SMILES>  (162) 
Cc1oc(nn1)c2cc3c(Oc4ccc(cc4)C(F)(F)F)cncc3s2

>  <NAME>  (162) 
CHEMBL1988153

>  <FILTER>  (162) 
OK

>  <MW>  (162) 
377.347

>  <LogP>  (162) 
5.46582

>  <HBD>  (162) 
0

>  <HBA>  (162) 
6

>  <TPSA>  (162) 
61.04

>  <Label>  (162) 
CAMK2B

$$$$
CHEMBL1998121
     RDKit          2D

 24 26  0  0  0  0  0  0  0  0999 V2000
   -4.2437   10.6337    0.0000 N   0  0  0  0  0  0  0  0  0  0  0  0
   -4.5556    9.1664    0.0000 C   0  0  0  0  0  0  0  0  0  0  0  0
   -3.4408    8.1628    0.0000 C   0  0  0  0  0  0  0  0  0  0  0  0
   -3.7527    6.6955    0.0000 C   0  0  0  0  0  0  0  0  0  0  0  0
   -2.6380    5.6918    0.0000 C   0  0  0  0  0  0  0  0  0  0  0  0
   -1.2114    6.1554    0.0000 O   0  0  0  0  0  0  0  0  0  0  0  0
   -2.9499    4.2246    0.0000 N   0  0  0  0  0  0  0  0  0  0  0  0
   -1.8351    3.2209    0.0000 C   0  0  0  0  0  0  0  0  0  0  0  0
   -0.4086    3.6844    0.0000 C   0  0  0  0  0  0  0  0  0  0  0  0
    0.7062    2.6807    0.0000 C   0  0  0  0  0  0  0  0  0  0  0  0
    0.3943    1.2135    0.0000 C   0  0  0  0  0  0  0  0  0  0  0  0
    1.2760    0.0000    0.0000 N   0  0  0  0  0  0  0  0  0  0  0  0
    0.3943   -1.2135    0.0000 N   0  0  0  0  0  0  0  0  0  0  0  0
   -1.0323   -0.7500    0.0000 C   0  0  0  0  0  0  0  0  0  0  0  0
   -1.0323    0.7500    0.0000 C   0  0  0  0  0  0  0  0  0  0  0  0
   -2.1470    1.7537    0.0000 C   0  0  0  0  0  0  0  0  0  0  0  0
   -5.1793    6.2320    0.0000 C   0  0  0  0  0  0  0  0  0  0  0  0
   -6.2940    7.2357    0.0000 C   0  0  0  0  0  0  0  0  0  0  0  0
   -7.7206    6.7722    0.0000 C   0  0  0  0  0  0  0  0  0  0  0  0
   -8.0325    5.3050    0.0000 C   0  0  0  0  0  0  0  0  0  0  0  0
   -9.4590    4.8414    0.0000 Cl  0  0  0  0  0  0  0  0  0  0  0  0
   -6.9177    4.3013    0.0000 C   0  0  0  0  0  0  0  0  0  0  0  0
   -7.2296    2.8340    0.0000 Cl  0  0  0  0  0  0  0  0  0  0  0  0
   -5.4912    4.7648    0.0000 C   0  0  0  0  0  0  0  0  0  0  0  0
  1  2  1  0
  2  3  1  0
  3  4  1  0
  4  5  1  0
  5  6  2  0
  5  7  1  0
  7  8  1  0
  8  9  2  0
  9 10  1  0
 10 11  2  0
 11 12  1  0
 12 13  1  0
 13 14  2  0
 14 15  1  0
 15 16  2  0
  4 17  1  0
 17 18  2  0
 18 19  1  0
 19 20  2  0
 20 21  1  0
 20 22  1  0
 22 23  1  0
 22 24  2  0
 16  8  1  0
 15 11  1  0
 24 17  1  0
M  END
>  <activity_comment>  (163) 
active

>  <activity_id>  (163) 
9626348

>  <activity_properties>  (163) 
[]

>  <assay_chembl_id>  (163) 
CHEMBL1963787

>  <assay_description>  (163) 
PUBCHEM_BIOASSAY: Navigating the Kinome. (Class of assay: other) Panel member name: CAMK2B

>  <assay_type>  (163) 
F

>  <bao_endpoint>  (163) 
BAO_0000192

>  <bao_format>  (163) 
BAO_0000019

>  <bao_label>  (163) 
assay format

>  <canonical_smiles>  (163) 
NCCC(C(=O)Nc1ccc2[nH]ncc2c1)c3ccc(Cl)c(Cl)c3

>  <data_validity_comment>  (163) 
nan

>  <data_validity_description>  (163) 
nan

>  <document_chembl_id>  (163) 
CHEMBL1201862

>  <document_journal>  (163) 
nan

>  <document_year>  (163) 
nan

>  <ligand_efficiency>  (163) 
nan

>  <molecule_pref_name>  (163) 
nan

>  <parent_molecule_chembl_id>  (163) 
CHEMBL1998121

>  <pchembl_value>  (163) 
5.6

>  <potential_duplicate>  (163) 
False

>  <qudt_units>  (163) 
http://www.openphacts.org/units/Nanomolar

>  <record_id>  (163) 
1584539

>  <relation>  (163) 
=

>  <src_id>  (163) 
7

>  <standard_flag>  (163) 
True

>  <standard_relation>  (163) 
=

>  <standard_text_value>  (163) 
nan

>  <standard_type>  (163) 
Ki

>  <standard_units>  (163) 
nM

>  <standard_upper_value>  (163) 
nan

>  <standard_value>  (163) 
2511.89

>  <target_chembl_id>  (163) 
CHEMBL4121

>  <target_organism>  (163) 
Homo sapiens

>  <target_pref_name>  (163) 
CaM kinase II beta

>  <target_tax_id>  (163) 
9606

>  <text_value>  (163) 
nan

>  <toid>  (163) 
nan

>  <type>  (163) 
pKi

>  <units>  (163) 
nan

>  <uo_units>  (163) 
UO_0000065

>  <upper_value>  (163) 
nan

>  <value>  (163) 
5.6

>  <SMILES>  (163) 
NCCC(C(=O)Nc1ccc2[nH]ncc2c1)c3ccc(Cl)c(Cl)c3

>  <NAME>  (163) 
CHEMBL1998121

>  <FILTER>  (163) 
OK

>  <MW>  (163) 
363.248

>  <LogP>  (163) 
3.9408

>  <HBD>  (163) 
3

>  <HBA>  (163) 
3

>  <TPSA>  (163) 
83.8

>  <Label>  (163) 
CAMK2B

$$$$
CHEMBL1979577
     RDKit          2D

 33 36  0  0  0  0  0  0  0  0999 V2000
    8.0406   12.1352    0.0000 C   0  0  0  0  0  0  0  0  0  0  0  0
    7.5771   10.7086    0.0000 C   0  0  0  0  0  0  0  0  0  0  0  0
    8.5808    9.5939    0.0000 C   0  0  0  0  0  0  0  0  0  0  0  0
    8.1173    8.1673    0.0000 C   0  0  0  0  0  0  0  0  0  0  0  0
    6.6501    7.8555    0.0000 C   0  0  0  0  0  0  0  0  0  0  0  0
    5.6464    8.9702    0.0000 C   0  0  0  0  0  0  0  0  0  0  0  0
    4.1791    8.6583    0.0000 N   0  0  0  0  0  0  0  0  0  0  0  0
    3.7156    7.2317    0.0000 C   0  0  0  0  0  0  0  0  0  0  0  0
    4.7193    6.1170    0.0000 O   0  0  0  0  0  0  0  0  0  0  0  0
    2.2484    6.9199    0.0000 N   0  0  0  0  0  0  0  0  0  0  0  0
    1.7849    5.4933    0.0000 C   0  0  0  0  0  0  0  0  0  0  0  0
    0.3177    5.1814    0.0000 C   0  0  0  0  0  0  0  0  0  0  0  0
   -0.1459    3.7548    0.0000 C   0  0  0  0  0  0  0  0  0  0  0  0
    0.8578    2.6401    0.0000 C   0  0  0  0  0  0  0  0  0  0  0  0
    2.3250    2.9520    0.0000 C   0  0  0  0  0  0  0  0  0  0  0  0
    2.7886    4.3786    0.0000 C   0  0  0  0  0  0  0  0  0  0  0  0
    0.3943    1.2135    0.0000 C   0  0  0  0  0  0  0  0  0  0  0  0
    1.2760    0.0000    0.0000 C   0  0  0  0  0  0  0  0  0  0  0  0
    0.3943   -1.2135    0.0000 S   0  0  0  0  0  0  0  0  0  0  0  0
   -1.0323   -0.7500    0.0000 C   0  0  0  0  0  0  0  0  0  0  0  0
   -2.3313   -1.5000    0.0000 C   0  0  0  0  0  0  0  0  0  0  0  0
   -3.6304   -0.7500    0.0000 C   0  0  0  0  0  0  0  0  0  0  0  0
   -3.6304    0.7500    0.0000 N   0  0  0  0  0  0  0  0  0  0  0  0
   -2.3313    1.5000    0.0000 C   0  0  0  0  0  0  0  0  0  0  0  0
   -2.3313    3.0000    0.0000 N   0  0  0  0  0  0  0  0  0  0  0  0
   -1.0323    0.7500    0.0000 C   0  0  0  0  0  0  0  0  0  0  0  0
   -2.3313   -3.0000    0.0000 C   0  0  0  0  0  0  0  0  0  0  0  0
   -2.3313   -4.5000    0.0000 C   0  0  0  0  0  0  0  0  0  0  0  0
   -2.3313   -6.0000    0.0000 C   0  0  0  0  0  0  0  0  0  0  0  0
   -0.8313   -6.0000    0.0000 C   0  0  0  0  0  0  0  0  0  0  0  0
   -3.8313   -6.0000    0.0000 C   0  0  0  0  0  0  0  0  0  0  0  0
   -2.3313   -7.5000    0.0000 N   0  0  0  0  0  0  0  0  0  0  0  0
    6.1099   10.3968    0.0000 C   0  0  0  0  0  0  0  0  0  0  0  0
  1  2  1  0
  2  3  2  0
  3  4  1  0
  4  5  2  0
  5  6  1  0
  6  7  1  0
  7  8  1  0
  8  9  2  0
  8 10  1  0
 10 11  1  0
 11 12  2  0
 12 13  1  0
 13 14  2  0
 14 15  1  0
 15 16  2  0
 14 17  1  0
 17 18  2  0
 18 19  1  0
 19 20  1  0
 20 21  2  0
 21 22  1  0
 22 23  2  0
 23 24  1  0
 24 25  1  0
 24 26  2  0
 21 27  1  0
 27 28  3  0
 28 29  1  0
 29 30  1  0
 29 31  1  0
 29 32  1  0
  6 33  2  0
 33  2  1  0
 16 11  1  0
 26 17  1  0
 26 20  1  0
M  END
>  <activity_comment>  (164) 
active

>  <activity_id>  (164) 
9626349

>  <activity_properties>  (164) 
[]

>  <assay_chembl_id>  (164) 
CHEMBL1963787

>  <assay_description>  (164) 
PUBCHEM_BIOASSAY: Navigating the Kinome. (Class of assay: other) Panel member name: CAMK2B

>  <assay_type>  (164) 
F

>  <bao_endpoint>  (164) 
BAO_0000192

>  <bao_format>  (164) 
BAO_0000019

>  <bao_label>  (164) 
assay format

>  <canonical_smiles>  (164) 
Cc1cccc(NC(=O)Nc2ccc(cc2)c3csc4c(cnc(N)c34)C#CC(C)(C)N)c1

>  <data_validity_comment>  (164) 
nan

>  <data_validity_description>  (164) 
nan

>  <document_chembl_id>  (164) 
CHEMBL1201862

>  <document_journal>  (164) 
nan

>  <document_year>  (164) 
nan

>  <ligand_efficiency>  (164) 
nan

>  <molecule_pref_name>  (164) 
nan

>  <parent_molecule_chembl_id>  (164) 
CHEMBL1979577

>  <pchembl_value>  (164) 
5.6

>  <potential_duplicate>  (164) 
False

>  <qudt_units>  (164) 
http://www.openphacts.org/units/Nanomolar

>  <record_id>  (164) 
1584185

>  <relation>  (164) 
=

>  <src_id>  (164) 
7

>  <standard_flag>  (164) 
True

>  <standard_relation>  (164) 
=

>  <standard_text_value>  (164) 
nan

>  <standard_type>  (164) 
Ki

>  <standard_units>  (164) 
nM

>  <standard_upper_value>  (164) 
nan

>  <standard_value>  (164) 
2511.89

>  <target_chembl_id>  (164) 
CHEMBL4121

>  <target_organism>  (164) 
Homo sapiens

>  <target_pref_name>  (164) 
CaM kinase II beta

>  <target_tax_id>  (164) 
9606

>  <text_value>  (164) 
nan

>  <toid>  (164) 
nan

>  <type>  (164) 
pKi

>  <units>  (164) 
nan

>  <uo_units>  (164) 
UO_0000065

>  <upper_value>  (164) 
nan

>  <value>  (164) 
5.6

>  <SMILES>  (164) 
Cc1cccc(NC(=O)Nc2ccc(cc2)c3csc4c(cnc(N)c34)C#CC(C)(C)N)c1

>  <NAME>  (164) 
CHEMBL1979577

>  <FILTER>  (164) 
OK

>  <MW>  (164) 
455.587

>  <LogP>  (164) 
5.58672

>  <HBD>  (164) 
4

>  <HBA>  (164) 
5

>  <TPSA>  (164) 
106.06

>  <Label>  (164) 
CAMK2B

$$$$
CHEMBL1996817
     RDKit          2D

 20 22  0  0  0  0  0  0  0  0999 V2000
    7.5000   -2.5981    0.0000 C   0  0  0  0  0  0  0  0  0  0  0  0
    6.0000   -2.5981    0.0000 C   0  0  0  0  0  0  0  0  0  0  0  0
    5.2500   -1.2990    0.0000 C   0  0  0  0  0  0  0  0  0  0  0  0
    3.7500   -1.2990    0.0000 C   0  0  0  0  0  0  0  0  0  0  0  0
    3.0000    0.0000    0.0000 O   0  0  0  0  0  0  0  0  0  0  0  0
    1.5000    0.0000    0.0000 C   0  0  0  0  0  0  0  0  0  0  0  0
    0.7500   -1.2990    0.0000 N   0  0  0  0  0  0  0  0  0  0  0  0
   -0.7500   -1.2990    0.0000 C   0  0  0  0  0  0  0  0  0  0  0  0
   -1.5000    0.0000    0.0000 N   0  0  0  0  0  0  0  0  0  0  0  0
   -0.7500    1.2990    0.0000 C   0  0  0  0  0  0  0  0  0  0  0  0
   -1.2135    2.7256    0.0000 N   0  0  0  0  0  0  0  0  0  0  0  0
   -0.0000    3.6073    0.0000 C   0  0  0  0  0  0  0  0  0  0  0  0
    1.2135    2.7256    0.0000 C   0  0  0  0  0  0  0  0  0  0  0  0
    2.6401    3.1891    0.0000 C   0  0  0  0  0  0  0  0  0  0  0  0
    3.7548    2.1855    0.0000 C   0  0  0  0  0  0  0  0  0  0  0  0
    5.1814    2.6490    0.0000 C   0  0  0  0  0  0  0  0  0  0  0  0
    5.4933    4.1162    0.0000 C   0  0  0  0  0  0  0  0  0  0  0  0
    4.3786    5.1199    0.0000 C   0  0  0  0  0  0  0  0  0  0  0  0
    2.9520    4.6564    0.0000 C   0  0  0  0  0  0  0  0  0  0  0  0
    0.7500    1.2990    0.0000 C   0  0  0  0  0  0  0  0  0  0  0  0
  1  2  1  0
  2  3  1  0
  3  4  1  0
  4  5  1  0
  5  6  1  0
  6  7  2  0
  7  8  1  0
  8  9  2  0
  9 10  1  0
 10 11  1  0
 11 12  1  0
 12 13  2  0
 13 14  1  0
 14 15  2  0
 15 16  1  0
 16 17  2  0
 17 18  1  0
 18 19  2  0
 13 20  1  0
 20  6  1  0
 20 10  2  0
 19 14  1  0
M  END
>  <activity_comment>  (165) 
active

>  <activity_id>  (165) 
9626353

>  <activity_properties>  (165) 
[]

>  <assay_chembl_id>  (165) 
CHEMBL1963787

>  <assay_description>  (165) 
PUBCHEM_BIOASSAY: Navigating the Kinome. (Class of assay: other) Panel member name: CAMK2B

>  <assay_type>  (165) 
F

>  <bao_endpoint>  (165) 
BAO_0000192

>  <bao_format>  (165) 
BAO_0000019

>  <bao_label>  (165) 
assay format

>  <canonical_smiles>  (165) 
CCCCOc1ncnc2[nH]cc(c3ccccc3)c12

>  <data_validity_comment>  (165) 
nan

>  <data_validity_description>  (165) 
nan

>  <document_chembl_id>  (165) 
CHEMBL1201862

>  <document_journal>  (165) 
nan

>  <document_year>  (165) 
nan

>  <ligand_efficiency>  (165) 
nan

>  <molecule_pref_name>  (165) 
nan

>  <parent_molecule_chembl_id>  (165) 
CHEMBL1996817

>  <pchembl_value>  (165) 
6.5

>  <potential_duplicate>  (165) 
False

>  <qudt_units>  (165) 
http://www.openphacts.org/units/Nanomolar

>  <record_id>  (165) 
1584384

>  <relation>  (165) 
=

>  <src_id>  (165) 
7

>  <standard_flag>  (165) 
True

>  <standard_relation>  (165) 
=

>  <standard_text_value>  (165) 
nan

>  <standard_type>  (165) 
Ki

>  <standard_units>  (165) 
nM

>  <standard_upper_value>  (165) 
nan

>  <standard_value>  (165) 
316.23

>  <target_chembl_id>  (165) 
CHEMBL4121

>  <target_organism>  (165) 
Homo sapiens

>  <target_pref_name>  (165) 
CaM kinase II beta

>  <target_tax_id>  (165) 
9606

>  <text_value>  (165) 
nan

>  <toid>  (165) 
nan

>  <type>  (165) 
pKi

>  <units>  (165) 
nan

>  <uo_units>  (165) 
UO_0000065

>  <upper_value>  (165) 
nan

>  <value>  (165) 
6.5

>  <SMILES>  (165) 
CCCCOc1ncnc2[nH]cc(c3ccccc3)c12

>  <NAME>  (165) 
CHEMBL1996817

>  <FILTER>  (165) 
OK

>  <MW>  (165) 
267.332

>  <LogP>  (165) 
3.8038

>  <HBD>  (165) 
1

>  <HBA>  (165) 
3

>  <TPSA>  (165) 
50.8

>  <Label>  (165) 
CAMK2B

$$$$
CHEMBL1990884
     RDKit          2D

 29 32  0  0  0  0  0  0  0  0999 V2000
   -2.9499    4.2246    0.0000 C   0  0  0  0  0  0  0  0  0  0  0  0
   -1.8351    3.2209    0.0000 C   0  0  0  0  0  0  0  0  0  0  0  0
   -0.4086    3.6844    0.0000 C   0  0  0  0  0  0  0  0  0  0  0  0
    0.7062    2.6807    0.0000 C   0  0  0  0  0  0  0  0  0  0  0  0
    2.1328    3.1443    0.0000 C   0  0  0  0  0  0  0  0  0  0  0  0
    0.3943    1.2135    0.0000 C   0  0  0  0  0  0  0  0  0  0  0  0
    1.2760    0.0000    0.0000 O   0  0  0  0  0  0  0  0  0  0  0  0
    0.3943   -1.2135    0.0000 C   0  0  0  0  0  0  0  0  0  0  0  0
    0.8578   -2.6401    0.0000 N   0  0  0  0  0  0  0  0  0  0  0  0
   -0.1459   -3.7548    0.0000 C   0  0  0  0  0  0  0  0  0  0  0  0
   -1.6131   -3.4430    0.0000 C   0  0  0  0  0  0  0  0  0  0  0  0
   -2.6168   -4.5577    0.0000 C   0  0  0  0  0  0  0  0  0  0  0  0
   -2.1533   -5.9843    0.0000 C   0  0  0  0  0  0  0  0  0  0  0  0
   -0.6860   -6.2961    0.0000 C   0  0  0  0  0  0  0  0  0  0  0  0
    0.3177   -5.1814    0.0000 C   0  0  0  0  0  0  0  0  0  0  0  0
    1.7849   -5.4933    0.0000 F   0  0  0  0  0  0  0  0  0  0  0  0
   -3.1570   -7.0990    0.0000 C   0  0  0  0  0  0  0  0  0  0  0  0
   -4.6242   -6.7871    0.0000 C   0  0  0  0  0  0  0  0  0  0  0  0
   -5.6279   -7.9018    0.0000 C   0  0  0  0  0  0  0  0  0  0  0  0
   -5.1644   -9.3284    0.0000 C   0  0  0  0  0  0  0  0  0  0  0  0
   -3.6971   -9.6403    0.0000 C   0  0  0  0  0  0  0  0  0  0  0  0
   -3.2336  -11.0669    0.0000 C   0  0  0  0  0  0  0  0  0  0  0  0
   -1.7664  -11.3787    0.0000 O   0  0  0  0  0  0  0  0  0  0  0  0
   -4.2373  -12.1816    0.0000 N   0  0  0  0  0  0  0  0  0  0  0  0
   -2.6934   -8.5256    0.0000 C   0  0  0  0  0  0  0  0  0  0  0  0
   -1.2262   -8.8374    0.0000 N   0  0  0  0  0  0  0  0  0  0  0  0
   -1.0323   -0.7500    0.0000 N   0  0  0  0  0  0  0  0  0  0  0  0
   -1.0323    0.7500    0.0000 C   0  0  0  0  0  0  0  0  0  0  0  0
   -2.1470    1.7537    0.0000 C   0  0  0  0  0  0  0  0  0  0  0  0
  1  2  1  0
  2  3  2  0
  3  4  1  0
  4  5  1  0
  4  6  2  0
  6  7  1  0
  7  8  1  0
  8  9  1  0
  9 10  1  0
 10 11  2  0
 11 12  1  0
 12 13  2  0
 13 14  1  0
 14 15  2  0
 15 16  1  0
 13 17  1  0
 17 18  2  0
 18 19  1  0
 19 20  2  0
 20 21  1  0
 21 22  1  0
 22 23  2  0
 22 24  1  0
 21 25  2  0
 25 26  1  0
  8 27  2  0
 27 28  1  0
 28 29  2  0
 29  2  1  0
 28  6  1  0
 15 10  1  0
 25 17  1  0
M  END
>  <activity_comment>  (166) 
active

>  <activity_id>  (166) 
9626357

>  <activity_properties>  (166) 
[]

>  <assay_chembl_id>  (166) 
CHEMBL1963787

>  <assay_description>  (166) 
PUBCHEM_BIOASSAY: Navigating the Kinome. (Class of assay: other) Panel member name: CAMK2B

>  <assay_type>  (166) 
F

>  <bao_endpoint>  (166) 
BAO_0000192

>  <bao_format>  (166) 
BAO_0000019

>  <bao_label>  (166) 
assay format

>  <canonical_smiles>  (166) 
Cc1cc(C)c2oc(Nc3ccc(cc3F)c4cccc(C(=O)N)c4N)nc2c1

>  <data_validity_comment>  (166) 
nan

>  <data_validity_description>  (166) 
nan

>  <document_chembl_id>  (166) 
CHEMBL1201862

>  <document_journal>  (166) 
nan

>  <document_year>  (166) 
nan

>  <ligand_efficiency>  (166) 
nan

>  <molecule_pref_name>  (166) 
nan

>  <parent_molecule_chembl_id>  (166) 
CHEMBL1990884

>  <pchembl_value>  (166) 
5.3

>  <potential_duplicate>  (166) 
False

>  <qudt_units>  (166) 
http://www.openphacts.org/units/Nanomolar

>  <record_id>  (166) 
1585197

>  <relation>  (166) 
=

>  <src_id>  (166) 
7

>  <standard_flag>  (166) 
True

>  <standard_relation>  (166) 
=

>  <standard_text_value>  (166) 
nan

>  <standard_type>  (166) 
Ki

>  <standard_units>  (166) 
nM

>  <standard_upper_value>  (166) 
nan

>  <standard_value>  (166) 
5011.87

>  <target_chembl_id>  (166) 
CHEMBL4121

>  <target_organism>  (166) 
Homo sapiens

>  <target_pref_name>  (166) 
CaM kinase II beta

>  <target_tax_id>  (166) 
9606

>  <text_value>  (166) 
nan

>  <toid>  (166) 
nan

>  <type>  (166) 
pKi

>  <units>  (166) 
nan

>  <uo_units>  (166) 
UO_0000065

>  <upper_value>  (166) 
nan

>  <value>  (166) 
5.3

>  <SMILES>  (166) 
Cc1cc(C)c2oc(Nc3ccc(cc3F)c4cccc(C(=O)N)c4N)nc2c1

>  <NAME>  (166) 
CHEMBL1990884

>  <FILTER>  (166) 
OK

>  <MW>  (166) 
390.418

>  <LogP>  (166) 
4.67544

>  <HBD>  (166) 
3

>  <HBA>  (166) 
5

>  <TPSA>  (166) 
107.17

>  <Label>  (166) 
CAMK2B

$$$$
CHEMBL1990885
     RDKit          2D

 29 31  0  0  0  0  0  0  0  0999 V2000
  -12.9041   -9.3825    0.0000 C   0  0  0  0  0  0  0  0  0  0  0  0
  -11.7894   -8.3788    0.0000 C   0  0  0  0  0  0  0  0  0  0  0  0
  -10.3628   -8.8423    0.0000 N   0  0  0  0  0  0  0  0  0  0  0  0
  -10.0510  -10.3095    0.0000 C   0  0  0  0  0  0  0  0  0  0  0  0
  -11.1657  -11.3132    0.0000 C   0  0  0  0  0  0  0  0  0  0  0  0
   -9.2481   -7.8386    0.0000 C   0  0  0  0  0  0  0  0  0  0  0  0
   -7.8215   -8.3021    0.0000 C   0  0  0  0  0  0  0  0  0  0  0  0
   -6.7068   -7.2984    0.0000 N   0  0  0  0  0  0  0  0  0  0  0  0
   -5.2802   -7.7620    0.0000 C   0  0  0  0  0  0  0  0  0  0  0  0
   -4.9684   -9.2292    0.0000 O   0  0  0  0  0  0  0  0  0  0  0  0
   -4.1655   -6.7583    0.0000 C   0  0  0  0  0  0  0  0  0  0  0  0
   -2.6983   -7.0701    0.0000 C   0  0  0  0  0  0  0  0  0  0  0  0
   -2.0882   -8.4404    0.0000 C   0  0  0  0  0  0  0  0  0  0  0  0
   -1.9483   -5.7711    0.0000 N   0  0  0  0  0  0  0  0  0  0  0  0
   -2.9520   -4.6564    0.0000 C   0  0  0  0  0  0  0  0  0  0  0  0
   -2.6401   -3.1891    0.0000 C   0  0  0  0  0  0  0  0  0  0  0  0
   -1.2135   -2.7256    0.0000 C   0  0  0  0  0  0  0  0  0  0  0  0
    0.0000   -3.6073    0.0000 C   0  0  0  0  0  0  0  0  0  0  0  0
    0.0000   -5.1073    0.0000 O   0  0  0  0  0  0  0  0  0  0  0  0
    1.2135   -2.7256    0.0000 N   0  0  0  0  0  0  0  0  0  0  0  0
    0.7500   -1.2990    0.0000 C   0  0  0  0  0  0  0  0  0  0  0  0
    1.5000    0.0000    0.0000 C   0  0  0  0  0  0  0  0  0  0  0  0
    0.7500    1.2990    0.0000 C   0  0  0  0  0  0  0  0  0  0  0  0
   -0.7500    1.2990    0.0000 C   0  0  0  0  0  0  0  0  0  0  0  0
   -1.5000    2.5981    0.0000 F   0  0  0  0  0  0  0  0  0  0  0  0
   -1.5000    0.0000    0.0000 C   0  0  0  0  0  0  0  0  0  0  0  0
   -0.7500   -1.2990    0.0000 C   0  0  0  0  0  0  0  0  0  0  0  0
   -4.3223   -5.2665    0.0000 C   0  0  0  0  0  0  0  0  0  0  0  0
   -5.6213   -4.5165    0.0000 C   0  0  0  0  0  0  0  0  0  0  0  0
  1  2  1  0
  2  3  1  0
  3  4  1  0
  4  5  1  0
  3  6  1  0
  6  7  1  0
  7  8  1  0
  8  9  1  0
  9 10  2  0
  9 11  1  0
 11 12  2  0
 12 13  1  0
 12 14  1  0
 14 15  1  0
 15 16  1  0
 16 17  2  3
 17 18  1  0
 18 19  2  0
 18 20  1  0
 20 21  1  0
 21 22  2  0
 22 23  1  0
 23 24  2  0
 24 25  1  0
 24 26  1  0
 26 27  2  0
 15 28  2  0
 28 29  1  0
 28 11  1  0
 27 17  1  0
 27 21  1  0
M  END
>  <activity_comment>  (167) 
active

>  <activity_id>  (167) 
9626358

>  <activity_properties>  (167) 
[]

>  <assay_chembl_id>  (167) 
CHEMBL1963787

>  <assay_description>  (167) 
PUBCHEM_BIOASSAY: Navigating the Kinome. (Class of assay: other) Panel member name: CAMK2B

>  <assay_type>  (167) 
F

>  <bao_endpoint>  (167) 
BAO_0000192

>  <bao_format>  (167) 
BAO_0000019

>  <bao_label>  (167) 
assay format

>  <canonical_smiles>  (167) 
CCN(CC)CCNC(=O)c1c(C)[nH]c(C=C2C(=O)Nc3ccc(F)cc23)c1C

>  <data_validity_comment>  (167) 
nan

>  <data_validity_description>  (167) 
nan

>  <document_chembl_id>  (167) 
CHEMBL1201862

>  <document_journal>  (167) 
nan

>  <document_year>  (167) 
nan

>  <ligand_efficiency>  (167) 
nan

>  <molecule_pref_name>  (167) 
nan

>  <parent_molecule_chembl_id>  (167) 
CHEMBL1990885

>  <pchembl_value>  (167) 
5.9

>  <potential_duplicate>  (167) 
False

>  <qudt_units>  (167) 
http://www.openphacts.org/units/Nanomolar

>  <record_id>  (167) 
1585552

>  <relation>  (167) 
=

>  <src_id>  (167) 
7

>  <standard_flag>  (167) 
True

>  <standard_relation>  (167) 
=

>  <standard_text_value>  (167) 
nan

>  <standard_type>  (167) 
Ki

>  <standard_units>  (167) 
nM

>  <standard_upper_value>  (167) 
nan

>  <standard_value>  (167) 
1258.93

>  <target_chembl_id>  (167) 
CHEMBL4121

>  <target_organism>  (167) 
Homo sapiens

>  <target_pref_name>  (167) 
CaM kinase II beta

>  <target_tax_id>  (167) 
9606

>  <text_value>  (167) 
nan

>  <toid>  (167) 
nan

>  <type>  (167) 
pKi

>  <units>  (167) 
nan

>  <uo_units>  (167) 
UO_0000065

>  <upper_value>  (167) 
nan

>  <value>  (167) 
5.9

>  <SMILES>  (167) 
CCN(CC)CCNC(=O)c1c(C)[nH]c(C=C2C(=O)Nc3ccc(F)cc23)c1C

>  <NAME>  (167) 
CHEMBL1990885

>  <FILTER>  (167) 
OK

>  <MW>  (167) 
398.482

>  <LogP>  (167) 
3.33494

>  <HBD>  (167) 
3

>  <HBA>  (167) 
3

>  <TPSA>  (167) 
77.23

>  <Label>  (167) 
CAMK2B

$$$$
CHEMBL1995740
     RDKit          2D

 28 31  0  0  0  0  0  0  0  0999 V2000
   -0.7500   -6.4952    0.0000 C   0  0  0  0  0  0  0  0  0  0  0  0
    0.7500   -6.4952    0.0000 O   0  0  0  0  0  0  0  0  0  0  0  0
    1.5000   -5.1962    0.0000 C   0  0  0  0  0  0  0  0  0  0  0  0
    0.7500   -3.8971    0.0000 C   0  0  0  0  0  0  0  0  0  0  0  0
    1.5000   -2.5981    0.0000 C   0  0  0  0  0  0  0  0  0  0  0  0
    3.0000   -2.5981    0.0000 C   0  0  0  0  0  0  0  0  0  0  0  0
    3.7500   -3.8971    0.0000 C   0  0  0  0  0  0  0  0  0  0  0  0
    3.0000   -5.1962    0.0000 C   0  0  0  0  0  0  0  0  0  0  0  0
    3.7500   -6.4952    0.0000 O   0  0  0  0  0  0  0  0  0  0  0  0
    0.7500   -1.2990    0.0000 C   0  0  0  0  0  0  0  0  0  0  0  0
    1.5000    0.0000    0.0000 C   0  0  0  0  0  0  0  0  0  0  0  0
    0.7500    1.2990    0.0000 C   0  0  0  0  0  0  0  0  0  0  0  0
   -0.7500    1.2990    0.0000 C   0  0  0  0  0  0  0  0  0  0  0  0
   -1.2980    2.6953    0.0000 C   0  0  0  0  0  0  0  0  0  0  0  0
   -0.2778    3.7949    0.0000 O   0  0  0  0  0  0  0  0  0  0  0  0
   -2.7314    3.1375    0.0000 N   0  0  0  0  0  0  0  0  0  0  0  0
   -3.9707    2.2925    0.0000 C   0  0  0  0  0  0  0  0  0  0  0  0
   -5.2101    3.1375    0.0000 C   0  0  0  0  0  0  0  0  0  0  0  0
   -6.5615    2.4867    0.0000 C   0  0  0  0  0  0  0  0  0  0  0  0
   -6.6736    0.9909    0.0000 C   0  0  0  0  0  0  0  0  0  0  0  0
   -5.4343    0.1459    0.0000 C   0  0  0  0  0  0  0  0  0  0  0  0
   -4.0828    0.7967    0.0000 C   0  0  0  0  0  0  0  0  0  0  0  0
   -2.9832   -0.2236    0.0000 N   0  0  0  0  0  0  0  0  0  0  0  0
   -1.5000    0.0000    0.0000 C   0  0  0  0  0  0  0  0  0  0  0  0
   -0.7500   -1.2990    0.0000 C   0  0  0  0  0  0  0  0  0  0  0  0
   -7.8009    3.3316    0.0000 N   0  0  0  0  0  0  0  0  0  0  0  0
   -9.1524    2.6808    0.0000 O   0  0  0  0  0  0  0  0  0  0  0  0
   -7.6888    4.8274    0.0000 O   0  0  0  0  0  0  0  0  0  0  0  0
  1  2  1  0
  2  3  1  0
  3  4  2  0
  4  5  1  0
  5  6  2  0
  6  7  1  0
  7  8  2  0
  8  9  1  0
  5 10  1  0
 10 11  2  0
 11 12  1  0
 12 13  2  0
 13 14  1  0
 14 15  2  0
 14 16  1  0
 16 17  1  0
 17 18  2  0
 18 19  1  0
 19 20  2  0
 20 21  1  0
 21 22  2  0
 22 23  1  0
 23 24  1  0
 24 25  2  0
 19 26  1  0
 26 27  2  0
 26 28  1  0
  8  3  1  0
 25 10  1  0
 24 13  1  0
 22 17  1  0
M  CHG  2  26   1  28  -1
M  END
>  <activity_comment>  (168) 
active

>  <activity_id>  (168) 
9626366

>  <activity_properties>  (168) 
[]

>  <assay_chembl_id>  (168) 
CHEMBL1963787

>  <assay_description>  (168) 
PUBCHEM_BIOASSAY: Navigating the Kinome. (Class of assay: other) Panel member name: CAMK2B

>  <assay_type>  (168) 
F

>  <bao_endpoint>  (168) 
BAO_0000192

>  <bao_format>  (168) 
BAO_0000019

>  <bao_label>  (168) 
assay format

>  <canonical_smiles>  (168) 
COc1cc(ccc1O)c2ccc3C(=O)Nc4cc(ccc4Nc3c2)[N+](=O)[O-]

>  <data_validity_comment>  (168) 
nan

>  <data_validity_description>  (168) 
nan

>  <document_chembl_id>  (168) 
CHEMBL1201862

>  <document_journal>  (168) 
nan

>  <document_year>  (168) 
nan

>  <ligand_efficiency>  (168) 
nan

>  <molecule_pref_name>  (168) 
nan

>  <parent_molecule_chembl_id>  (168) 
CHEMBL1995740

>  <pchembl_value>  (168) 
5.2

>  <potential_duplicate>  (168) 
False

>  <qudt_units>  (168) 
http://www.openphacts.org/units/Nanomolar

>  <record_id>  (168) 
1584595

>  <relation>  (168) 
=

>  <src_id>  (168) 
7

>  <standard_flag>  (168) 
True

>  <standard_relation>  (168) 
=

>  <standard_text_value>  (168) 
nan

>  <standard_type>  (168) 
Ki

>  <standard_units>  (168) 
nM

>  <standard_upper_value>  (168) 
nan

>  <standard_value>  (168) 
6309.57

>  <target_chembl_id>  (168) 
CHEMBL4121

>  <target_organism>  (168) 
Homo sapiens

>  <target_pref_name>  (168) 
CaM kinase II beta

>  <target_tax_id>  (168) 
9606

>  <text_value>  (168) 
nan

>  <toid>  (168) 
nan

>  <type>  (168) 
pKi

>  <units>  (168) 
nan

>  <uo_units>  (168) 
UO_0000065

>  <upper_value>  (168) 
nan

>  <value>  (168) 
5.2

>  <SMILES>  (168) 
COc1cc(ccc1O)c2ccc3C(=O)Nc4cc(ccc4Nc3c2)[N+](=O)[O-]

>  <NAME>  (168) 
CHEMBL1995740

>  <FILTER>  (168) 
OK

>  <MW>  (168) 
377.356

>  <LogP>  (168) 
4.2853

>  <HBD>  (168) 
3

>  <HBA>  (168) 
6

>  <TPSA>  (168) 
113.73

>  <Label>  (168) 
CAMK2B

$$$$
CHEMBL1969042
     RDKit          2D

 27 30  0  0  0  0  0  0  0  0999 V2000
   -6.0000   -5.1962    0.0000 O   0  0  0  0  0  0  0  0  0  0  0  0
   -5.2500   -3.8971    0.0000 C   0  0  0  0  0  0  0  0  0  0  0  0
   -3.7500   -3.8971    0.0000 C   0  0  0  0  0  0  0  0  0  0  0  0
   -3.0000   -2.5981    0.0000 C   0  0  0  0  0  0  0  0  0  0  0  0
   -3.7500   -1.2990    0.0000 C   0  0  0  0  0  0  0  0  0  0  0  0
   -3.0000    0.0000    0.0000 N   0  0  0  0  0  0  0  0  0  0  0  0
   -3.7500    1.2990    0.0000 C   0  0  0  0  0  0  0  0  0  0  0  0
   -5.2418    1.4558    0.0000 N   0  0  0  0  0  0  0  0  0  0  0  0
   -5.5537    2.9231    0.0000 N   0  0  0  0  0  0  0  0  0  0  0  0
   -4.2546    3.6731    0.0000 C   0  0  0  0  0  0  0  0  0  0  0  0
   -4.0978    5.1648    0.0000 C   0  0  0  0  0  0  0  0  0  0  0  0
   -2.7275    5.7749    0.0000 C   0  0  0  0  0  0  0  0  0  0  0  0
   -2.5707    7.2667    0.0000 C   0  0  0  0  0  0  0  0  0  0  0  0
   -3.7842    8.1484    0.0000 C   0  0  0  0  0  0  0  0  0  0  0  0
   -3.6274    9.6402    0.0000 O   0  0  0  0  0  0  0  0  0  0  0  0
   -5.1546    7.5383    0.0000 C   0  0  0  0  0  0  0  0  0  0  0  0
   -5.3113    6.0465    0.0000 C   0  0  0  0  0  0  0  0  0  0  0  0
   -3.1399    2.6694    0.0000 C   0  0  0  0  0  0  0  0  0  0  0  0
   -1.6727    2.9812    0.0000 C   0  0  0  0  0  0  0  0  0  0  0  0
   -0.6690    1.8665    0.0000 C   0  0  0  0  0  0  0  0  0  0  0  0
    0.7982    2.1784    0.0000 C   0  0  0  0  0  0  0  0  0  0  0  0
    1.2618    3.6050    0.0000 C   0  0  0  0  0  0  0  0  0  0  0  0
    2.7290    3.9168    0.0000 O   0  0  0  0  0  0  0  0  0  0  0  0
    0.2581    4.7197    0.0000 C   0  0  0  0  0  0  0  0  0  0  0  0
   -1.2091    4.4078    0.0000 C   0  0  0  0  0  0  0  0  0  0  0  0
   -5.2500   -1.2990    0.0000 C   0  0  0  0  0  0  0  0  0  0  0  0
   -6.0000   -2.5981    0.0000 C   0  0  0  0  0  0  0  0  0  0  0  0
  1  2  1  0
  2  3  2  0
  3  4  1  0
  4  5  2  0
  5  6  1  0
  6  7  1  0
  7  8  1  0
  8  9  1  0
  9 10  2  0
 10 11  1  0
 11 12  2  0
 12 13  1  0
 13 14  2  0
 14 15  1  0
 14 16  1  0
 16 17  2  0
 10 18  1  0
 18 19  1  0
 19 20  2  0
 20 21  1  0
 21 22  2  0
 22 23  1  0
 22 24  1  0
 24 25  2  0
  5 26  1  0
 26 27  2  0
 27  2  1  0
 18  7  2  0
 17 11  1  0
 25 19  1  0
M  END
>  <activity_comment>  (169) 
active

>  <activity_id>  (169) 
9626371

>  <activity_properties>  (169) 
[]

>  <assay_chembl_id>  (169) 
CHEMBL1963787

>  <assay_description>  (169) 
PUBCHEM_BIOASSAY: Navigating the Kinome. (Class of assay: other) Panel member name: CAMK2B

>  <assay_type>  (169) 
F

>  <bao_endpoint>  (169) 
BAO_0000192

>  <bao_format>  (169) 
BAO_0000019

>  <bao_label>  (169) 
assay format

>  <canonical_smiles>  (169) 
Oc1ccc(Nc2[nH]nc(c3ccc(O)cc3)c2c4ccc(O)cc4)cc1

>  <data_validity_comment>  (169) 
nan

>  <data_validity_description>  (169) 
nan

>  <document_chembl_id>  (169) 
CHEMBL1201862

>  <document_journal>  (169) 
nan

>  <document_year>  (169) 
nan

>  <ligand_efficiency>  (169) 
nan

>  <molecule_pref_name>  (169) 
nan

>  <parent_molecule_chembl_id>  (169) 
CHEMBL1969042

>  <pchembl_value>  (169) 
5.2

>  <potential_duplicate>  (169) 
False

>  <qudt_units>  (169) 
http://www.openphacts.org/units/Nanomolar

>  <record_id>  (169) 
1585460

>  <relation>  (169) 
=

>  <src_id>  (169) 
7

>  <standard_flag>  (169) 
True

>  <standard_relation>  (169) 
=

>  <standard_text_value>  (169) 
nan

>  <standard_type>  (169) 
Ki

>  <standard_units>  (169) 
nM

>  <standard_upper_value>  (169) 
nan

>  <standard_value>  (169) 
6309.57

>  <target_chembl_id>  (169) 
CHEMBL4121

>  <target_organism>  (169) 
Homo sapiens

>  <target_pref_name>  (169) 
CaM kinase II beta

>  <target_tax_id>  (169) 
9606

>  <text_value>  (169) 
nan

>  <toid>  (169) 
nan

>  <type>  (169) 
pKi

>  <units>  (169) 
nan

>  <uo_units>  (169) 
UO_0000065

>  <upper_value>  (169) 
nan

>  <value>  (169) 
5.2

>  <SMILES>  (169) 
Oc1ccc(Nc2[nH]nc(c3ccc(O)cc3)c2c4ccc(O)cc4)cc1

>  <NAME>  (169) 
CHEMBL1969042

>  <FILTER>  (169) 
OK

>  <MW>  (169) 
359.385

>  <LogP>  (169) 
4.6041

>  <HBD>  (169) 
5

>  <HBA>  (169) 
5

>  <TPSA>  (169) 
101.4

>  <Label>  (169) 
CAMK2B

$$$$
CHEMBL1999931
     RDKit          2D

 30 34  0  0  0  0  0  0  0  0999 V2000
   -1.8373   -5.6601    0.0000 O   0  0  0  0  0  0  0  0  0  0  0  0
   -2.9520   -4.6564    0.0000 C   0  0  0  0  0  0  0  0  0  0  0  0
   -2.6401   -3.1891    0.0000 N   0  0  0  0  0  0  0  0  0  0  0  0
   -1.2135   -2.7256    0.0000 C   0  0  0  0  0  0  0  0  0  0  0  0
    0.0000   -3.6073    0.0000 N   0  0  0  0  0  0  0  0  0  0  0  0
    1.2135   -2.7256    0.0000 N   0  0  0  0  0  0  0  0  0  0  0  0
    0.7500   -1.2990    0.0000 C   0  0  0  0  0  0  0  0  0  0  0  0
    1.5000    0.0000    0.0000 C   0  0  0  0  0  0  0  0  0  0  0  0
    0.7500    1.2990    0.0000 C   0  0  0  0  0  0  0  0  0  0  0  0
   -0.7500    1.2990    0.0000 C   0  0  0  0  0  0  0  0  0  0  0  0
   -1.5000    0.0000    0.0000 C   0  0  0  0  0  0  0  0  0  0  0  0
   -0.7500   -1.2990    0.0000 C   0  0  0  0  0  0  0  0  0  0  0  0
   -1.5000    2.5981    0.0000 C   0  0  0  0  0  0  0  0  0  0  0  0
   -2.9918    2.7549    0.0000 C   0  0  0  0  0  0  0  0  0  0  0  0
   -3.3037    4.2221    0.0000 N   0  0  0  0  0  0  0  0  0  0  0  0
   -4.6740    4.8322    0.0000 C   0  0  0  0  0  0  0  0  0  0  0  0
   -4.8308    6.3240    0.0000 C   0  0  0  0  0  0  0  0  0  0  0  0
   -3.6172    7.2057    0.0000 C   0  0  0  0  0  0  0  0  0  0  0  0
   -3.7740    8.6974    0.0000 C   0  0  0  0  0  0  0  0  0  0  0  0
   -5.1443    9.3075    0.0000 C   0  0  0  0  0  0  0  0  0  0  0  0
   -6.3579    8.4259    0.0000 C   0  0  0  0  0  0  0  0  0  0  0  0
   -6.2011    6.9341    0.0000 C   0  0  0  0  0  0  0  0  0  0  0  0
   -2.0046    4.9721    0.0000 N   0  0  0  0  0  0  0  0  0  0  0  0
   -0.8899    3.9684    0.0000 N   0  0  0  0  0  0  0  0  0  0  0  0
   -4.3786   -5.1199    0.0000 C   0  0  0  0  0  0  0  0  0  0  0  0
   -5.4933   -4.1162    0.0000 C   0  0  0  0  0  0  0  0  0  0  0  0
   -6.9199   -4.5797    0.0000 C   0  0  0  0  0  0  0  0  0  0  0  0
   -7.2317   -6.0469    0.0000 C   0  0  0  0  0  0  0  0  0  0  0  0
   -6.1170   -7.0506    0.0000 C   0  0  0  0  0  0  0  0  0  0  0  0
   -4.6904   -6.5871    0.0000 C   0  0  0  0  0  0  0  0  0  0  0  0
  1  2  2  0
  2  3  1  0
  3  4  1  0
  4  5  2  0
  5  6  1  0
  6  7  1  0
  7  8  2  0
  8  9  1  0
  9 10  2  0
 10 11  1  0
 11 12  2  0
 10 13  1  0
 13 14  2  0
 14 15  1  0
 15 16  1  0
 16 17  1  0
 17 18  2  0
 18 19  1  0
 19 20  2  0
 20 21  1  0
 21 22  2  0
 15 23  1  0
 23 24  2  0
  2 25  1  0
 25 26  2  0
 26 27  1  0
 27 28  2  0
 28 29  1  0
 29 30  2  0
 12  4  1  0
 12  7  1  0
 24 13  1  0
 22 17  1  0
 30 25  1  0
M  END
>  <activity_comment>  (170) 
active

>  <activity_id>  (170) 
9626372

>  <activity_properties>  (170) 
[]

>  <assay_chembl_id>  (170) 
CHEMBL1963787

>  <assay_description>  (170) 
PUBCHEM_BIOASSAY: Navigating the Kinome. (Class of assay: other) Panel member name: CAMK2B

>  <assay_type>  (170) 
F

>  <bao_endpoint>  (170) 
BAO_0000192

>  <bao_format>  (170) 
BAO_0000019

>  <bao_label>  (170) 
assay format

>  <canonical_smiles>  (170) 
O=C(Nc1n[nH]c2ccc(cc12)c3cn(Cc4ccccc4)nn3)c5ccccc5

>  <data_validity_comment>  (170) 
nan

>  <data_validity_description>  (170) 
nan

>  <document_chembl_id>  (170) 
CHEMBL1201862

>  <document_journal>  (170) 
nan

>  <document_year>  (170) 
nan

>  <ligand_efficiency>  (170) 
nan

>  <molecule_pref_name>  (170) 
nan

>  <parent_molecule_chembl_id>  (170) 
CHEMBL1999931

>  <pchembl_value>  (170) 
5.6

>  <potential_duplicate>  (170) 
False

>  <qudt_units>  (170) 
http://www.openphacts.org/units/Nanomolar

>  <record_id>  (170) 
1584393

>  <relation>  (170) 
=

>  <src_id>  (170) 
7

>  <standard_flag>  (170) 
True

>  <standard_relation>  (170) 
=

>  <standard_text_value>  (170) 
nan

>  <standard_type>  (170) 
Ki

>  <standard_units>  (170) 
nM

>  <standard_upper_value>  (170) 
nan

>  <standard_value>  (170) 
2511.89

>  <target_chembl_id>  (170) 
CHEMBL4121

>  <target_organism>  (170) 
Homo sapiens

>  <target_pref_name>  (170) 
CaM kinase II beta

>  <target_tax_id>  (170) 
9606

>  <text_value>  (170) 
nan

>  <toid>  (170) 
nan

>  <type>  (170) 
pKi

>  <units>  (170) 
nan

>  <uo_units>  (170) 
UO_0000065

>  <upper_value>  (170) 
nan

>  <value>  (170) 
5.6

>  <SMILES>  (170) 
O=C(Nc1n[nH]c2ccc(cc12)c3cn(Cc4ccccc4)nn3)c5ccccc5

>  <NAME>  (170) 
CHEMBL1999931

>  <FILTER>  (170) 
OK

>  <MW>  (170) 
394.438

>  <LogP>  (170) 
4.122

>  <HBD>  (170) 
2

>  <HBA>  (170) 
5

>  <TPSA>  (170) 
88.49

>  <Label>  (170) 
CAMK2B

$$$$
CHEMBL2007064
     RDKit          2D

 23 25  0  0  0  0  0  0  0  0999 V2000
   -2.0882   -8.4404    0.0000 C   0  0  0  0  0  0  0  0  0  0  0  0
   -2.6983   -7.0701    0.0000 C   0  0  0  0  0  0  0  0  0  0  0  0
   -1.9483   -5.7711    0.0000 N   0  0  0  0  0  0  0  0  0  0  0  0
   -2.9520   -4.6564    0.0000 C   0  0  0  0  0  0  0  0  0  0  0  0
   -2.6401   -3.1891    0.0000 C   0  0  0  0  0  0  0  0  0  0  0  0
   -1.2135   -2.7256    0.0000 C   0  0  0  0  0  0  0  0  0  0  0  0
    0.0000   -3.6073    0.0000 C   0  0  0  0  0  0  0  0  0  0  0  0
    0.0000   -5.1073    0.0000 O   0  0  0  0  0  0  0  0  0  0  0  0
    1.2135   -2.7256    0.0000 N   0  0  0  0  0  0  0  0  0  0  0  0
    0.7500   -1.2990    0.0000 C   0  0  0  0  0  0  0  0  0  0  0  0
    1.5000    0.0000    0.0000 C   0  0  0  0  0  0  0  0  0  0  0  0
    0.7500    1.2990    0.0000 C   0  0  0  0  0  0  0  0  0  0  0  0
   -0.7500    1.2990    0.0000 C   0  0  0  0  0  0  0  0  0  0  0  0
   -1.5000    0.0000    0.0000 C   0  0  0  0  0  0  0  0  0  0  0  0
   -0.7500   -1.2990    0.0000 C   0  0  0  0  0  0  0  0  0  0  0  0
   -4.3223   -5.2665    0.0000 C   0  0  0  0  0  0  0  0  0  0  0  0
   -5.6213   -4.5165    0.0000 C   0  0  0  0  0  0  0  0  0  0  0  0
   -4.1655   -6.7583    0.0000 C   0  0  0  0  0  0  0  0  0  0  0  0
   -5.2802   -7.7620    0.0000 C   0  0  0  0  0  0  0  0  0  0  0  0
   -6.7068   -7.2984    0.0000 C   0  0  0  0  0  0  0  0  0  0  0  0
   -7.8215   -8.3021    0.0000 C   0  0  0  0  0  0  0  0  0  0  0  0
   -7.5097   -9.7693    0.0000 O   0  0  0  0  0  0  0  0  0  0  0  0
   -9.2481   -7.8386    0.0000 O   0  0  0  0  0  0  0  0  0  0  0  0
  1  2  1  0
  2  3  1  0
  3  4  1  0
  4  5  1  0
  5  6  2  3
  6  7  1  0
  7  8  2  0
  7  9  1  0
  9 10  1  0
 10 11  2  0
 11 12  1  0
 12 13  2  0
 13 14  1  0
 14 15  2  0
  4 16  2  0
 16 17  1  0
 16 18  1  0
 18 19  1  0
 19 20  1  0
 20 21  1  0
 21 22  2  0
 21 23  1  0
 18  2  2  0
 15  6  1  0
 15 10  1  0
M  END
>  <activity_comment>  (171) 
active

>  <activity_id>  (171) 
9626374

>  <activity_properties>  (171) 
[]

>  <assay_chembl_id>  (171) 
CHEMBL1963787

>  <assay_description>  (171) 
PUBCHEM_BIOASSAY: Navigating the Kinome. (Class of assay: other) Panel member name: CAMK2B

>  <assay_type>  (171) 
F

>  <bao_endpoint>  (171) 
BAO_0000192

>  <bao_format>  (171) 
BAO_0000019

>  <bao_label>  (171) 
assay format

>  <canonical_smiles>  (171) 
Cc1[nH]c(C=C2C(=O)Nc3ccccc23)c(C)c1CCC(=O)O

>  <data_validity_comment>  (171) 
nan

>  <data_validity_description>  (171) 
nan

>  <document_chembl_id>  (171) 
CHEMBL1201862

>  <document_journal>  (171) 
nan

>  <document_year>  (171) 
nan

>  <ligand_efficiency>  (171) 
nan

>  <molecule_pref_name>  (171) 
nan

>  <parent_molecule_chembl_id>  (171) 
CHEMBL2007064

>  <pchembl_value>  (171) 
5.2

>  <potential_duplicate>  (171) 
False

>  <qudt_units>  (171) 
http://www.openphacts.org/units/Nanomolar

>  <record_id>  (171) 
1584995

>  <relation>  (171) 
=

>  <src_id>  (171) 
7

>  <standard_flag>  (171) 
True

>  <standard_relation>  (171) 
=

>  <standard_text_value>  (171) 
nan

>  <standard_type>  (171) 
Ki

>  <standard_units>  (171) 
nM

>  <standard_upper_value>  (171) 
nan

>  <standard_value>  (171) 
6309.57

>  <target_chembl_id>  (171) 
CHEMBL4121

>  <target_organism>  (171) 
Homo sapiens

>  <target_pref_name>  (171) 
CaM kinase II beta

>  <target_tax_id>  (171) 
9606

>  <text_value>  (171) 
nan

>  <toid>  (171) 
nan

>  <type>  (171) 
pKi

>  <units>  (171) 
nan

>  <uo_units>  (171) 
UO_0000065

>  <upper_value>  (171) 
nan

>  <value>  (171) 
5.2

>  <SMILES>  (171) 
Cc1[nH]c(C=C2C(=O)Nc3ccccc23)c(C)c1CCC(=O)O

>  <NAME>  (171) 
CHEMBL2007064

>  <FILTER>  (171) 
OK

>  <MW>  (171) 
310.353

>  <LogP>  (171) 
3.14144

>  <HBD>  (171) 
3

>  <HBA>  (171) 
2

>  <TPSA>  (171) 
82.19

>  <Label>  (171) 
CAMK2B

$$$$
CHEMBL1981047
     RDKit          2D

 35 39  0  0  0  0  0  0  0  0999 V2000
    4.7960    2.1491    0.0000 C   0  0  0  0  0  0  0  0  0  0  0  0
    3.3287    1.8373    0.0000 O   0  0  0  0  0  0  0  0  0  0  0  0
    2.3250    2.9520    0.0000 C   0  0  0  0  0  0  0  0  0  0  0  0
    0.8578    2.6401    0.0000 C   0  0  0  0  0  0  0  0  0  0  0  0
   -0.1459    3.7548    0.0000 O   0  0  0  0  0  0  0  0  0  0  0  0
    0.3943    1.2135    0.0000 N   0  0  0  0  0  0  0  0  0  0  0  0
    1.2760    0.0000    0.0000 C   0  0  0  0  0  0  0  0  0  0  0  0
    0.3943   -1.2135    0.0000 C   0  0  0  0  0  0  0  0  0  0  0  0
    0.3943   -2.7135    0.0000 N   0  0  0  0  0  0  0  0  0  0  0  0
   -1.0323   -3.1771    0.0000 N   0  0  0  0  0  0  0  0  0  0  0  0
   -1.9140   -1.9635    0.0000 C   0  0  0  0  0  0  0  0  0  0  0  0
   -3.4140   -1.9635    0.0000 N   0  0  0  0  0  0  0  0  0  0  0  0
   -4.1640   -0.6645    0.0000 C   0  0  0  0  0  0  0  0  0  0  0  0
   -3.4140    0.6346    0.0000 O   0  0  0  0  0  0  0  0  0  0  0  0
   -5.6640   -0.6645    0.0000 C   0  0  0  0  0  0  0  0  0  0  0  0
   -6.4140    0.6346    0.0000 C   0  0  0  0  0  0  0  0  0  0  0  0
   -7.9140    0.6346    0.0000 C   0  0  0  0  0  0  0  0  0  0  0  0
   -8.6640   -0.6645    0.0000 C   0  0  0  0  0  0  0  0  0  0  0  0
   -7.9140   -1.9635    0.0000 C   0  0  0  0  0  0  0  0  0  0  0  0
   -6.4140   -1.9635    0.0000 C   0  0  0  0  0  0  0  0  0  0  0  0
  -10.1640   -0.6645    0.0000 N   0  0  0  0  0  0  0  0  0  0  0  0
  -10.9140    0.6346    0.0000 C   0  0  0  0  0  0  0  0  0  0  0  0
  -12.4140    0.6346    0.0000 C   0  0  0  0  0  0  0  0  0  0  0  0
  -13.1640   -0.6645    0.0000 N   0  0  0  0  0  0  0  0  0  0  0  0
  -14.6640   -0.6645    0.0000 C   0  0  0  0  0  0  0  0  0  0  0  0
  -12.4140   -1.9635    0.0000 C   0  0  0  0  0  0  0  0  0  0  0  0
  -10.9140   -1.9635    0.0000 C   0  0  0  0  0  0  0  0  0  0  0  0
   -1.0323   -0.7500    0.0000 C   0  0  0  0  0  0  0  0  0  0  0  0
   -1.0323    0.7500    0.0000 C   0  0  0  0  0  0  0  0  0  0  0  0
    2.7886    4.3786    0.0000 C   0  0  0  0  0  0  0  0  0  0  0  0
    4.2558    4.6904    0.0000 C   0  0  0  0  0  0  0  0  0  0  0  0
    4.7193    6.1170    0.0000 C   0  0  0  0  0  0  0  0  0  0  0  0
    3.7156    7.2317    0.0000 C   0  0  0  0  0  0  0  0  0  0  0  0
    2.2484    6.9199    0.0000 C   0  0  0  0  0  0  0  0  0  0  0  0
    1.7849    5.4933    0.0000 C   0  0  0  0  0  0  0  0  0  0  0  0
  1  2  1  0
  2  3  1  0
  3  4  1  0
  4  5  2  0
  4  6  1  0
  6  7  1  0
  7  8  1  0
  8  9  1  0
  9 10  1  0
 10 11  2  0
 11 12  1  0
 12 13  1  0
 13 14  2  0
 13 15  1  0
 15 16  2  0
 16 17  1  0
 17 18  2  0
 18 19  1  0
 19 20  2  0
 18 21  1  0
 21 22  1  0
 22 23  1  0
 23 24  1  0
 24 25  1  0
 24 26  1  0
 26 27  1  0
 11 28  1  0
 28 29  1  0
  3 30  1  0
 30 31  2  0
 31 32  1  0
 32 33  2  0
 33 34  1  0
 34 35  2  0
 29  6  1  0
 28  8  2  0
 20 15  1  0
 27 21  1  0
 35 30  1  0
M  END
>  <activity_comment>  (172) 
active

>  <activity_id>  (172) 
9626375

>  <activity_properties>  (172) 
[]

>  <assay_chembl_id>  (172) 
CHEMBL1963787

>  <assay_description>  (172) 
PUBCHEM_BIOASSAY: Navigating the Kinome. (Class of assay: other) Panel member name: CAMK2B

>  <assay_type>  (172) 
F

>  <bao_endpoint>  (172) 
BAO_0000192

>  <bao_format>  (172) 
BAO_0000019

>  <bao_label>  (172) 
assay format

>  <canonical_smiles>  (172) 
COC(C(=O)N1Cc2[nH]nc(NC(=O)c3ccc(cc3)N4CCN(C)CC4)c2C1)c5ccccc5

>  <data_validity_comment>  (172) 
nan

>  <data_validity_description>  (172) 
nan

>  <document_chembl_id>  (172) 
CHEMBL1201862

>  <document_journal>  (172) 
nan

>  <document_year>  (172) 
nan

>  <ligand_efficiency>  (172) 
nan

>  <molecule_pref_name>  (172) 
nan

>  <parent_molecule_chembl_id>  (172) 
CHEMBL1981047

>  <pchembl_value>  (172) 
5.1

>  <potential_duplicate>  (172) 
False

>  <qudt_units>  (172) 
http://www.openphacts.org/units/Nanomolar

>  <record_id>  (172) 
1585490

>  <relation>  (172) 
=

>  <src_id>  (172) 
7

>  <standard_flag>  (172) 
True

>  <standard_relation>  (172) 
=

>  <standard_text_value>  (172) 
nan

>  <standard_type>  (172) 
Ki

>  <standard_units>  (172) 
nM

>  <standard_upper_value>  (172) 
nan

>  <standard_value>  (172) 
7943.28

>  <target_chembl_id>  (172) 
CHEMBL4121

>  <target_organism>  (172) 
Homo sapiens

>  <target_pref_name>  (172) 
CaM kinase II beta

>  <target_tax_id>  (172) 
9606

>  <text_value>  (172) 
nan

>  <toid>  (172) 
nan

>  <type>  (172) 
pKi

>  <units>  (172) 
nan

>  <uo_units>  (172) 
UO_0000065

>  <upper_value>  (172) 
nan

>  <value>  (172) 
5.1

>  <SMILES>  (172) 
COC(C(=O)N1Cc2[nH]nc(NC(=O)c3ccc(cc3)N4CCN(C)CC4)c2C1)c5ccccc5

>  <NAME>  (172) 
CHEMBL1981047

>  <FILTER>  (172) 
OK

>  <MW>  (172) 
474.565

>  <LogP>  (172) 
2.6437

>  <HBD>  (172) 
2

>  <HBA>  (172) 
6

>  <TPSA>  (172) 
93.8

>  <Label>  (172) 
CAMK2B

$$$$
CHEMBL1991063
     RDKit          2D

 29 32  0  0  0  0  0  0  0  0999 V2000
   -2.6401   -3.1891    0.0000 C   0  0  0  0  0  0  0  0  0  0  0  0
   -1.2135   -2.7256    0.0000 C   0  0  0  0  0  0  0  0  0  0  0  0
   -0.0000   -3.6073    0.0000 N   0  0  0  0  0  0  0  0  0  0  0  0
    1.2135   -2.7256    0.0000 N   0  0  0  0  0  0  0  0  0  0  0  0
    0.7500   -1.2990    0.0000 C   0  0  0  0  0  0  0  0  0  0  0  0
    1.5000    0.0000    0.0000 C   0  0  0  0  0  0  0  0  0  0  0  0
    0.7500    1.2990    0.0000 C   0  0  0  0  0  0  0  0  0  0  0  0
   -0.7500    1.2990    0.0000 C   0  0  0  0  0  0  0  0  0  0  0  0
   -1.5000    0.0000    0.0000 C   0  0  0  0  0  0  0  0  0  0  0  0
   -0.7500   -1.2990    0.0000 C   0  0  0  0  0  0  0  0  0  0  0  0
   -1.5000    2.5981    0.0000 C   0  0  0  0  0  0  0  0  0  0  0  0
   -0.7500    3.8971    0.0000 C   0  0  0  0  0  0  0  0  0  0  0  0
   -1.5000    5.1962    0.0000 N   0  0  0  0  0  0  0  0  0  0  0  0
   -3.0000    5.1962    0.0000 C   0  0  0  0  0  0  0  0  0  0  0  0
   -3.7500    3.8971    0.0000 C   0  0  0  0  0  0  0  0  0  0  0  0
   -5.2500    3.8971    0.0000 O   0  0  0  0  0  0  0  0  0  0  0  0
   -6.0000    5.1962    0.0000 C   0  0  0  0  0  0  0  0  0  0  0  0
   -7.5000    5.1962    0.0000 C   0  0  0  0  0  0  0  0  0  0  0  0
   -8.2500    3.8971    0.0000 N   0  0  0  0  0  0  0  0  0  0  0  0
   -8.2500    6.4952    0.0000 C   0  0  0  0  0  0  0  0  0  0  0  0
   -9.7500    6.4952    0.0000 C   0  0  0  0  0  0  0  0  0  0  0  0
  -10.5000    7.7942    0.0000 C   0  0  0  0  0  0  0  0  0  0  0  0
  -12.0000    7.7942    0.0000 C   0  0  0  0  0  0  0  0  0  0  0  0
  -12.7500    6.4952    0.0000 C   0  0  0  0  0  0  0  0  0  0  0  0
  -14.2500    6.4952    0.0000 Cl  0  0  0  0  0  0  0  0  0  0  0  0
  -12.0000    5.1962    0.0000 C   0  0  0  0  0  0  0  0  0  0  0  0
  -12.7500    3.8971    0.0000 Cl  0  0  0  0  0  0  0  0  0  0  0  0
  -10.5000    5.1962    0.0000 C   0  0  0  0  0  0  0  0  0  0  0  0
   -3.0000    2.5981    0.0000 C   0  0  0  0  0  0  0  0  0  0  0  0
  1  2  1  0
  2  3  2  0
  3  4  1  0
  4  5  1  0
  5  6  2  0
  6  7  1  0
  7  8  2  0
  8  9  1  0
  9 10  2  0
  8 11  1  0
 11 12  2  0
 12 13  1  0
 13 14  2  0
 14 15  1  0
 15 16  1  0
 16 17  1  0
 17 18  1  0
 18 19  1  0
 18 20  1  0
 20 21  1  0
 21 22  2  0
 22 23  1  0
 23 24  2  0
 24 25  1  0
 24 26  1  0
 26 27  1  0
 26 28  2  0
 15 29  2  0
 10  2  1  0
 10  5  1  0
 29 11  1  0
 28 21  1  0
M  END
>  <activity_comment>  (173) 
active

>  <activity_id>  (173) 
9626376

>  <activity_properties>  (173) 
[]

>  <assay_chembl_id>  (173) 
CHEMBL1963787

>  <assay_description>  (173) 
PUBCHEM_BIOASSAY: Navigating the Kinome. (Class of assay: other) Panel member name: CAMK2B

>  <assay_type>  (173) 
F

>  <bao_endpoint>  (173) 
BAO_0000192

>  <bao_format>  (173) 
BAO_0000019

>  <bao_label>  (173) 
assay format

>  <canonical_smiles>  (173) 
Cc1n[nH]c2ccc(cc12)c3cncc(OCC(N)Cc4ccc(Cl)c(Cl)c4)c3

>  <data_validity_comment>  (173) 
nan

>  <data_validity_description>  (173) 
nan

>  <document_chembl_id>  (173) 
CHEMBL1201862

>  <document_journal>  (173) 
nan

>  <document_year>  (173) 
nan

>  <ligand_efficiency>  (173) 
nan

>  <molecule_pref_name>  (173) 
nan

>  <parent_molecule_chembl_id>  (173) 
CHEMBL1991063

>  <pchembl_value>  (173) 
6.6

>  <potential_duplicate>  (173) 
False

>  <qudt_units>  (173) 
http://www.openphacts.org/units/Nanomolar

>  <record_id>  (173) 
1584362

>  <relation>  (173) 
=

>  <src_id>  (173) 
7

>  <standard_flag>  (173) 
True

>  <standard_relation>  (173) 
=

>  <standard_text_value>  (173) 
nan

>  <standard_type>  (173) 
Ki

>  <standard_units>  (173) 
nM

>  <standard_upper_value>  (173) 
nan

>  <standard_value>  (173) 
251.19

>  <target_chembl_id>  (173) 
CHEMBL4121

>  <target_organism>  (173) 
Homo sapiens

>  <target_pref_name>  (173) 
CaM kinase II beta

>  <target_tax_id>  (173) 
9606

>  <text_value>  (173) 
nan

>  <toid>  (173) 
nan

>  <type>  (173) 
pKi

>  <units>  (173) 
nan

>  <uo_units>  (173) 
UO_0000065

>  <upper_value>  (173) 
nan

>  <value>  (173) 
6.6

>  <SMILES>  (173) 
Cc1n[nH]c2ccc(cc12)c3cncc(OCC(N)Cc4ccc(Cl)c(Cl)c4)c3

>  <NAME>  (173) 
CHEMBL1991063

>  <FILTER>  (173) 
OK

>  <MW>  (173) 
427.335

>  <LogP>  (173) 
5.18892

>  <HBD>  (173) 
2

>  <HBA>  (173) 
4

>  <TPSA>  (173) 
76.82

>  <Label>  (173) 
CAMK2B

$$$$
CHEMBL2002726
     RDKit          2D

 27 30  0  0  0  0  0  0  0  0999 V2000
   -2.6401   -3.1891    0.0000 C   0  0  0  0  0  0  0  0  0  0  0  0
   -1.2135   -2.7256    0.0000 C   0  0  0  0  0  0  0  0  0  0  0  0
   -0.0000   -3.6073    0.0000 N   0  0  0  0  0  0  0  0  0  0  0  0
    1.2135   -2.7256    0.0000 N   0  0  0  0  0  0  0  0  0  0  0  0
    0.7500   -1.2990    0.0000 C   0  0  0  0  0  0  0  0  0  0  0  0
    1.5000    0.0000    0.0000 C   0  0  0  0  0  0  0  0  0  0  0  0
    0.7500    1.2990    0.0000 C   0  0  0  0  0  0  0  0  0  0  0  0
   -0.7500    1.2990    0.0000 C   0  0  0  0  0  0  0  0  0  0  0  0
   -1.5000    0.0000    0.0000 C   0  0  0  0  0  0  0  0  0  0  0  0
   -0.7500   -1.2990    0.0000 C   0  0  0  0  0  0  0  0  0  0  0  0
   -1.5000    2.5981    0.0000 C   0  0  0  0  0  0  0  0  0  0  0  0
   -0.7500    3.8971    0.0000 C   0  0  0  0  0  0  0  0  0  0  0  0
   -1.5000    5.1962    0.0000 N   0  0  0  0  0  0  0  0  0  0  0  0
   -3.0000    5.1962    0.0000 C   0  0  0  0  0  0  0  0  0  0  0  0
   -3.7500    3.8971    0.0000 C   0  0  0  0  0  0  0  0  0  0  0  0
   -5.2500    3.8971    0.0000 O   0  0  0  0  0  0  0  0  0  0  0  0
   -6.0000    5.1962    0.0000 C   0  0  0  0  0  0  0  0  0  0  0  0
   -7.5000    5.1962    0.0000 C   0  0  0  0  0  0  0  0  0  0  0  0
   -8.2500    3.8971    0.0000 N   0  0  0  0  0  0  0  0  0  0  0  0
   -8.2500    6.4952    0.0000 C   0  0  0  0  0  0  0  0  0  0  0  0
   -9.7500    6.4952    0.0000 C   0  0  0  0  0  0  0  0  0  0  0  0
  -10.5000    7.7942    0.0000 C   0  0  0  0  0  0  0  0  0  0  0  0
  -12.0000    7.7942    0.0000 C   0  0  0  0  0  0  0  0  0  0  0  0
  -12.7500    6.4952    0.0000 C   0  0  0  0  0  0  0  0  0  0  0  0
  -12.0000    5.1962    0.0000 C   0  0  0  0  0  0  0  0  0  0  0  0
  -10.5000    5.1962    0.0000 C   0  0  0  0  0  0  0  0  0  0  0  0
   -3.0000    2.5981    0.0000 C   0  0  0  0  0  0  0  0  0  0  0  0
  1  2  1  0
  2  3  2  0
  3  4  1  0
  4  5  1  0
  5  6  2  0
  6  7  1  0
  7  8  2  0
  8  9  1  0
  9 10  2  0
  8 11  1  0
 11 12  2  0
 12 13  1  0
 13 14  2  0
 14 15  1  0
 15 16  1  0
 16 17  1  0
 17 18  1  0
 18 19  1  0
 18 20  1  0
 20 21  1  0
 21 22  2  0
 22 23  1  0
 23 24  2  0
 24 25  1  0
 25 26  2  0
 15 27  2  0
 10  2  1  0
 10  5  1  0
 27 11  1  0
 26 21  1  0
M  END
>  <activity_comment>  (174) 
active

>  <activity_id>  (174) 
9626381

>  <activity_properties>  (174) 
[]

>  <assay_chembl_id>  (174) 
CHEMBL1963787

>  <assay_description>  (174) 
PUBCHEM_BIOASSAY: Navigating the Kinome. (Class of assay: other) Panel member name: CAMK2B

>  <assay_type>  (174) 
F

>  <bao_endpoint>  (174) 
BAO_0000192

>  <bao_format>  (174) 
BAO_0000019

>  <bao_label>  (174) 
assay format

>  <canonical_smiles>  (174) 
Cc1n[nH]c2ccc(cc12)c3cncc(OCC(N)Cc4ccccc4)c3

>  <data_validity_comment>  (174) 
nan

>  <data_validity_description>  (174) 
nan

>  <document_chembl_id>  (174) 
CHEMBL1201862

>  <document_journal>  (174) 
nan

>  <document_year>  (174) 
nan

>  <ligand_efficiency>  (174) 
nan

>  <molecule_pref_name>  (174) 
nan

>  <parent_molecule_chembl_id>  (174) 
CHEMBL2002726

>  <pchembl_value>  (174) 
6.5

>  <potential_duplicate>  (174) 
False

>  <qudt_units>  (174) 
http://www.openphacts.org/units/Nanomolar

>  <record_id>  (174) 
1584350

>  <relation>  (174) 
=

>  <src_id>  (174) 
7

>  <standard_flag>  (174) 
True

>  <standard_relation>  (174) 
=

>  <standard_text_value>  (174) 
nan

>  <standard_type>  (174) 
Ki

>  <standard_units>  (174) 
nM

>  <standard_upper_value>  (174) 
nan

>  <standard_value>  (174) 
316.23

>  <target_chembl_id>  (174) 
CHEMBL4121

>  <target_organism>  (174) 
Homo sapiens

>  <target_pref_name>  (174) 
CaM kinase II beta

>  <target_tax_id>  (174) 
9606

>  <text_value>  (174) 
nan

>  <toid>  (174) 
nan

>  <type>  (174) 
pKi

>  <units>  (174) 
nan

>  <uo_units>  (174) 
UO_0000065

>  <upper_value>  (174) 
nan

>  <value>  (174) 
6.5

>  <SMILES>  (174) 
Cc1n[nH]c2ccc(cc12)c3cncc(OCC(N)Cc4ccccc4)c3

>  <NAME>  (174) 
CHEMBL2002726

>  <FILTER>  (174) 
OK

>  <MW>  (174) 
358.445

>  <LogP>  (174) 
3.88212

>  <HBD>  (174) 
2

>  <HBA>  (174) 
4

>  <TPSA>  (174) 
76.82

>  <Label>  (174) 
CAMK2B

$$$$
CHEMBL226403
     RDKit          2D

 26 30  0  0  0  0  0  0  0  0999 V2000
   -8.8573   -9.4952    0.0000 O   0  0  0  0  0  0  0  0  0  0  0  0
   -8.8573   -7.9952    0.0000 C   0  0  0  0  0  0  0  0  0  0  0  0
  -10.1563   -7.2452    0.0000 N   0  0  0  0  0  0  0  0  0  0  0  0
  -10.1563   -5.7452    0.0000 C   0  0  0  0  0  0  0  0  0  0  0  0
   -8.8573   -4.9952    0.0000 C   0  0  0  0  0  0  0  0  0  0  0  0
   -7.5583   -5.7452    0.0000 C   0  0  0  0  0  0  0  0  0  0  0  0
   -6.1317   -5.2817    0.0000 N   0  0  0  0  0  0  0  0  0  0  0  0
   -5.2500   -6.4952    0.0000 C   0  0  0  0  0  0  0  0  0  0  0  0
   -6.1317   -7.7087    0.0000 C   0  0  0  0  0  0  0  0  0  0  0  0
   -7.5583   -7.2452    0.0000 C   0  0  0  0  0  0  0  0  0  0  0  0
   -3.7500   -6.4952    0.0000 C   0  0  0  0  0  0  0  0  0  0  0  0
   -3.0000   -7.7942    0.0000 C   0  0  0  0  0  0  0  0  0  0  0  0
   -1.5000   -7.7942    0.0000 C   0  0  0  0  0  0  0  0  0  0  0  0
   -0.7500   -6.4952    0.0000 N   0  0  0  0  0  0  0  0  0  0  0  0
   -1.5000   -5.1962    0.0000 C   0  0  0  0  0  0  0  0  0  0  0  0
   -3.0000   -5.1962    0.0000 C   0  0  0  0  0  0  0  0  0  0  0  0
   -0.7500   -3.8971    0.0000 C   0  0  0  0  0  0  0  0  0  0  0  0
    0.7500   -3.8971    0.0000 C   0  0  0  0  0  0  0  0  0  0  0  0
    1.5000   -2.5981    0.0000 N   0  0  0  0  0  0  0  0  0  0  0  0
    0.7500   -1.2990    0.0000 C   0  0  0  0  0  0  0  0  0  0  0  0
    1.5000    0.0000    0.0000 C   0  0  0  0  0  0  0  0  0  0  0  0
    0.7500    1.2990    0.0000 C   0  0  0  0  0  0  0  0  0  0  0  0
   -0.7500    1.2990    0.0000 C   0  0  0  0  0  0  0  0  0  0  0  0
   -1.5000    0.0000    0.0000 C   0  0  0  0  0  0  0  0  0  0  0  0
   -0.7500   -1.2990    0.0000 C   0  0  0  0  0  0  0  0  0  0  0  0
   -1.5000   -2.5981    0.0000 C   0  0  0  0  0  0  0  0  0  0  0  0
  1  2  2  0
  2  3  1  0
  3  4  1  0
  4  5  1  0
  5  6  1  0
  6  7  1  0
  7  8  1  0
  8  9  2  0
  9 10  1  0
  8 11  1  0
 11 12  2  0
 12 13  1  0
 13 14  2  0
 14 15  1  0
 15 16  2  0
 15 17  1  0
 17 18  2  0
 18 19  1  0
 19 20  2  0
 20 21  1  0
 21 22  2  0
 22 23  1  0
 23 24  2  0
 24 25  1  0
 25 26  2  0
 10  2  1  0
 10  6  2  0
 16 11  1  0
 26 17  1  0
 25 20  1  0
M  END
>  <activity_comment>  (175) 
active

>  <activity_id>  (175) 
9626384

>  <activity_properties>  (175) 
[]

>  <assay_chembl_id>  (175) 
CHEMBL1963787

>  <assay_description>  (175) 
PUBCHEM_BIOASSAY: Navigating the Kinome. (Class of assay: other) Panel member name: CAMK2B

>  <assay_type>  (175) 
F

>  <bao_endpoint>  (175) 
BAO_0000192

>  <bao_format>  (175) 
BAO_0000019

>  <bao_label>  (175) 
assay format

>  <canonical_smiles>  (175) 
O=C1NCCc2[nH]c(cc12)c3ccnc(c3)c4cnc5ccccc5c4

>  <data_validity_comment>  (175) 
nan

>  <data_validity_description>  (175) 
nan

>  <document_chembl_id>  (175) 
CHEMBL1201862

>  <document_journal>  (175) 
nan

>  <document_year>  (175) 
nan

>  <ligand_efficiency>  (175) 
nan

>  <molecule_pref_name>  (175) 
nan

>  <parent_molecule_chembl_id>  (175) 
CHEMBL226403

>  <pchembl_value>  (175) 
5.2

>  <potential_duplicate>  (175) 
False

>  <qudt_units>  (175) 
http://www.openphacts.org/units/Nanomolar

>  <record_id>  (175) 
1585142

>  <relation>  (175) 
=

>  <src_id>  (175) 
7

>  <standard_flag>  (175) 
True

>  <standard_relation>  (175) 
=

>  <standard_text_value>  (175) 
nan

>  <standard_type>  (175) 
Ki

>  <standard_units>  (175) 
nM

>  <standard_upper_value>  (175) 
nan

>  <standard_value>  (175) 
6309.57

>  <target_chembl_id>  (175) 
CHEMBL4121

>  <target_organism>  (175) 
Homo sapiens

>  <target_pref_name>  (175) 
CaM kinase II beta

>  <target_tax_id>  (175) 
9606

>  <text_value>  (175) 
nan

>  <toid>  (175) 
nan

>  <type>  (175) 
pKi

>  <units>  (175) 
nan

>  <uo_units>  (175) 
UO_0000065

>  <upper_value>  (175) 
nan

>  <value>  (175) 
5.2

>  <SMILES>  (175) 
O=C1NCCc2[nH]c(cc12)c3ccnc(c3)c4cnc5ccccc5c4

>  <NAME>  (175) 
CHEMBL226403

>  <FILTER>  (175) 
OK

>  <MW>  (175) 
340.386

>  <LogP>  (175) 
3.5778

>  <HBD>  (175) 
2

>  <HBA>  (175) 
3

>  <TPSA>  (175) 
70.67

>  <Label>  (175) 
CAMK2B

$$$$
CHEMBL1997846
     RDKit          2D

 23 26  0  0  0  0  0  0  0  0999 V2000
   -4.6904   -6.5871    0.0000 Cl  0  0  0  0  0  0  0  0  0  0  0  0
   -4.3786   -5.1199    0.0000 C   0  0  0  0  0  0  0  0  0  0  0  0
   -5.4933   -4.1162    0.0000 C   0  0  0  0  0  0  0  0  0  0  0  0
   -5.1814   -2.6490    0.0000 C   0  0  0  0  0  0  0  0  0  0  0  0
   -6.2961   -1.6453    0.0000 N   0  0  0  0  0  0  0  0  0  0  0  0
   -5.9843   -0.1781    0.0000 C   0  0  0  0  0  0  0  0  0  0  0  0
   -4.5577    0.2855    0.0000 C   0  0  0  0  0  0  0  0  0  0  0  0
   -4.2458    1.7527    0.0000 C   0  0  0  0  0  0  0  0  0  0  0  0
   -5.3605    2.7564    0.0000 C   0  0  0  0  0  0  0  0  0  0  0  0
   -6.7871    2.2929    0.0000 C   0  0  0  0  0  0  0  0  0  0  0  0
   -7.0990    0.8256    0.0000 C   0  0  0  0  0  0  0  0  0  0  0  0
   -3.7548   -2.1855    0.0000 N   0  0  0  0  0  0  0  0  0  0  0  0
   -2.6401   -3.1891    0.0000 C   0  0  0  0  0  0  0  0  0  0  0  0
   -2.9520   -4.6564    0.0000 N   0  0  0  0  0  0  0  0  0  0  0  0
   -1.2135   -2.7256    0.0000 C   0  0  0  0  0  0  0  0  0  0  0  0
    0.0000   -3.6073    0.0000 C   0  0  0  0  0  0  0  0  0  0  0  0
    1.2135   -2.7256    0.0000 N   0  0  0  0  0  0  0  0  0  0  0  0
    0.7500   -1.2990    0.0000 C   0  0  0  0  0  0  0  0  0  0  0  0
    1.5000    0.0000    0.0000 N   0  0  0  0  0  0  0  0  0  0  0  0
    0.7500    1.2990    0.0000 C   0  0  0  0  0  0  0  0  0  0  0  0
   -0.7500    1.2990    0.0000 C   0  0  0  0  0  0  0  0  0  0  0  0
   -1.5000    0.0000    0.0000 C   0  0  0  0  0  0  0  0  0  0  0  0
   -0.7500   -1.2990    0.0000 C   0  0  0  0  0  0  0  0  0  0  0  0
  1  2  1  0
  2  3  2  0
  3  4  1  0
  4  5  1  0
  5  6  1  0
  6  7  1  0
  7  8  1  0
  8  9  1  0
  9 10  1  0
 10 11  1  0
  4 12  2  0
 12 13  1  0
 13 14  2  0
 13 15  1  0
 15 16  2  0
 16 17  1  0
 17 18  1  0
 18 19  2  0
 19 20  1  0
 20 21  2  0
 21 22  1  0
 22 23  2  0
 14  2  1  0
 11  6  1  0
 23 15  1  0
 23 18  1  0
M  END
>  <activity_comment>  (176) 
active

>  <activity_id>  (176) 
9626389

>  <activity_properties>  (176) 
[]

>  <assay_chembl_id>  (176) 
CHEMBL1963787

>  <assay_description>  (176) 
PUBCHEM_BIOASSAY: Navigating the Kinome. (Class of assay: other) Panel member name: CAMK2B

>  <assay_type>  (176) 
F

>  <bao_endpoint>  (176) 
BAO_0000192

>  <bao_format>  (176) 
BAO_0000019

>  <bao_label>  (176) 
assay format

>  <canonical_smiles>  (176) 
Clc1cc(NC2CCCCC2)nc(n1)c3c[nH]c4ncccc34

>  <data_validity_comment>  (176) 
nan

>  <data_validity_description>  (176) 
nan

>  <document_chembl_id>  (176) 
CHEMBL1201862

>  <document_journal>  (176) 
nan

>  <document_year>  (176) 
nan

>  <ligand_efficiency>  (176) 
nan

>  <molecule_pref_name>  (176) 
nan

>  <parent_molecule_chembl_id>  (176) 
CHEMBL1997846

>  <pchembl_value>  (176) 
5.5

>  <potential_duplicate>  (176) 
False

>  <qudt_units>  (176) 
http://www.openphacts.org/units/Nanomolar

>  <record_id>  (176) 
1584086

>  <relation>  (176) 
=

>  <src_id>  (176) 
7

>  <standard_flag>  (176) 
True

>  <standard_relation>  (176) 
=

>  <standard_text_value>  (176) 
nan

>  <standard_type>  (176) 
Ki

>  <standard_units>  (176) 
nM

>  <standard_upper_value>  (176) 
nan

>  <standard_value>  (176) 
3162.28

>  <target_chembl_id>  (176) 
CHEMBL4121

>  <target_organism>  (176) 
Homo sapiens

>  <target_pref_name>  (176) 
CaM kinase II beta

>  <target_tax_id>  (176) 
9606

>  <text_value>  (176) 
nan

>  <toid>  (176) 
nan

>  <type>  (176) 
pKi

>  <units>  (176) 
nan

>  <uo_units>  (176) 
UO_0000065

>  <upper_value>  (176) 
nan

>  <value>  (176) 
5.5

>  <SMILES>  (176) 
Clc1cc(NC2CCCCC2)nc(n1)c3c[nH]c4ncccc34

>  <NAME>  (176) 
CHEMBL1997846

>  <FILTER>  (176) 
OK

>  <MW>  (176) 
327.819

>  <LogP>  (176) 
4.4179

>  <HBD>  (176) 
2

>  <HBA>  (176) 
4

>  <TPSA>  (176) 
66.49

>  <Label>  (176) 
CAMK2B

$$$$
CHEMBL2004419
     RDKit          2D

 30 34  0  0  0  0  0  0  0  0999 V2000
   -5.1814   -2.6490    0.0000 C   0  0  0  0  0  0  0  0  0  0  0  0
   -3.7548   -2.1855    0.0000 C   0  0  0  0  0  0  0  0  0  0  0  0
   -3.4430   -0.7182    0.0000 C   0  0  0  0  0  0  0  0  0  0  0  0
   -2.6401   -3.1891    0.0000 C   0  0  0  0  0  0  0  0  0  0  0  0
   -1.2135   -2.7256    0.0000 N   0  0  0  0  0  0  0  0  0  0  0  0
   -0.0000   -3.6073    0.0000 C   0  0  0  0  0  0  0  0  0  0  0  0
   -0.0000   -5.1073    0.0000 N   0  0  0  0  0  0  0  0  0  0  0  0
    1.2135   -2.7256    0.0000 N   0  0  0  0  0  0  0  0  0  0  0  0
    0.7500   -1.2990    0.0000 C   0  0  0  0  0  0  0  0  0  0  0  0
    1.5000    0.0000    0.0000 C   0  0  0  0  0  0  0  0  0  0  0  0
    3.0000    0.0000    0.0000 F   0  0  0  0  0  0  0  0  0  0  0  0
    0.7500    1.2990    0.0000 C   0  0  0  0  0  0  0  0  0  0  0  0
   -0.7500    1.2990    0.0000 C   0  0  0  0  0  0  0  0  0  0  0  0
   -1.5000    0.0000    0.0000 C   0  0  0  0  0  0  0  0  0  0  0  0
   -0.7500   -1.2990    0.0000 C   0  0  0  0  0  0  0  0  0  0  0  0
   -1.5000    2.5981    0.0000 C   0  0  0  0  0  0  0  0  0  0  0  0
   -2.9918    2.7549    0.0000 C   0  0  0  0  0  0  0  0  0  0  0  0
   -3.3037    4.2221    0.0000 N   0  0  0  0  0  0  0  0  0  0  0  0
   -2.0046    4.9721    0.0000 C   0  0  0  0  0  0  0  0  0  0  0  0
   -1.3945    6.3424    0.0000 S   0  0  0  0  0  0  0  0  0  0  0  0
    0.0973    6.1856    0.0000 C   0  0  0  0  0  0  0  0  0  0  0  0
    0.4091    4.7184    0.0000 C   0  0  0  0  0  0  0  0  0  0  0  0
   -0.8899    3.9684    0.0000 N   0  0  0  0  0  0  0  0  0  0  0  0
   -3.9955    1.6402    0.0000 C   0  0  0  0  0  0  0  0  0  0  0  0
   -5.4627    1.9520    0.0000 C   0  0  0  0  0  0  0  0  0  0  0  0
   -6.4664    0.8373    0.0000 C   0  0  0  0  0  0  0  0  0  0  0  0
   -6.0029   -0.5893    0.0000 C   0  0  0  0  0  0  0  0  0  0  0  0
   -7.0066   -1.7040    0.0000 F   0  0  0  0  0  0  0  0  0  0  0  0
   -4.5356   -0.9012    0.0000 C   0  0  0  0  0  0  0  0  0  0  0  0
   -3.5320    0.2136    0.0000 C   0  0  0  0  0  0  0  0  0  0  0  0
  1  2  1  0
  2  3  1  0
  2  4  1  0
  4  5  1  0
  5  6  1  0
  6  7  1  0
  6  8  2  0
  8  9  1  0
  9 10  2  0
 10 11  1  0
 10 12  1  0
 12 13  2  0
 13 14  1  0
 14 15  2  0
 13 16  1  0
 16 17  2  0
 17 18  1  0
 18 19  2  0
 19 20  1  0
 20 21  1  0
 21 22  2  0
 22 23  1  0
 17 24  1  0
 24 25  2  0
 25 26  1  0
 26 27  2  0
 27 28  1  0
 27 29  1  0
 29 30  2  0
 15  5  1  0
 15  9  1  0
 23 16  1  0
 23 19  1  0
 30 24  1  0
M  END
>  <activity_comment>  (177) 
active

>  <activity_id>  (177) 
9626390

>  <activity_properties>  (177) 
[]

>  <assay_chembl_id>  (177) 
CHEMBL1963787

>  <assay_description>  (177) 
PUBCHEM_BIOASSAY: Navigating the Kinome. (Class of assay: other) Panel member name: CAMK2B

>  <assay_type>  (177) 
F

>  <bao_endpoint>  (177) 
BAO_0000192

>  <bao_format>  (177) 
BAO_0000019

>  <bao_label>  (177) 
assay format

>  <canonical_smiles>  (177) 
CC(C)Cn1c(N)nc2c(F)cc(cc12)c3c(nc4sccn34)c5ccc(F)cc5

>  <data_validity_comment>  (177) 
nan

>  <data_validity_description>  (177) 
nan

>  <document_chembl_id>  (177) 
CHEMBL1201862

>  <document_journal>  (177) 
nan

>  <document_year>  (177) 
nan

>  <ligand_efficiency>  (177) 
nan

>  <molecule_pref_name>  (177) 
nan

>  <parent_molecule_chembl_id>  (177) 
CHEMBL2004419

>  <pchembl_value>  (177) 
5.2

>  <potential_duplicate>  (177) 
False

>  <qudt_units>  (177) 
http://www.openphacts.org/units/Nanomolar

>  <record_id>  (177) 
1584945

>  <relation>  (177) 
=

>  <src_id>  (177) 
7

>  <standard_flag>  (177) 
True

>  <standard_relation>  (177) 
=

>  <standard_text_value>  (177) 
nan

>  <standard_type>  (177) 
Ki

>  <standard_units>  (177) 
nM

>  <standard_upper_value>  (177) 
nan

>  <standard_value>  (177) 
6309.57

>  <target_chembl_id>  (177) 
CHEMBL4121

>  <target_organism>  (177) 
Homo sapiens

>  <target_pref_name>  (177) 
CaM kinase II beta

>  <target_tax_id>  (177) 
9606

>  <text_value>  (177) 
nan

>  <toid>  (177) 
nan

>  <type>  (177) 
pKi

>  <units>  (177) 
nan

>  <uo_units>  (177) 
UO_0000065

>  <upper_value>  (177) 
nan

>  <value>  (177) 
5.2

>  <SMILES>  (177) 
CC(C)Cn1c(N)nc2c(F)cc(cc12)c3c(nc4sccn34)c5ccc(F)cc5

>  <NAME>  (177) 
CHEMBL2004419

>  <FILTER>  (177) 
OK

>  <MW>  (177) 
423.492

>  <LogP>  (177) 
5.5959

>  <HBD>  (177) 
1

>  <HBA>  (177) 
6

>  <TPSA>  (177) 
61.14

>  <Label>  (177) 
CAMK2B

$$$$
CHEMBL1994074
     RDKit          2D

 16 18  0  0  0  0  0  0  0  0999 V2000
    3.0000    0.0000    0.0000 Br  0  0  0  0  0  0  0  0  0  0  0  0
    1.5000    0.0000    0.0000 C   0  0  0  0  0  0  0  0  0  0  0  0
    0.7500   -1.2990    0.0000 C   0  0  0  0  0  0  0  0  0  0  0  0
   -0.7500   -1.2990    0.0000 C   0  0  0  0  0  0  0  0  0  0  0  0
   -1.5000    0.0000    0.0000 C   0  0  0  0  0  0  0  0  0  0  0  0
   -2.9672    0.3119    0.0000 N   0  0  0  0  0  0  0  0  0  0  0  0
   -3.1240    1.8037    0.0000 N   0  0  0  0  0  0  0  0  0  0  0  0
   -1.7537    2.4138    0.0000 C   0  0  0  0  0  0  0  0  0  0  0  0
   -1.4418    3.8810    0.0000 C   0  0  0  0  0  0  0  0  0  0  0  0
   -0.0152    4.3445    0.0000 C   0  0  0  0  0  0  0  0  0  0  0  0
    0.2966    5.8117    0.0000 C   0  0  0  0  0  0  0  0  0  0  0  0
   -0.8181    6.8154    0.0000 C   0  0  0  0  0  0  0  0  0  0  0  0
   -2.2447    6.3519    0.0000 C   0  0  0  0  0  0  0  0  0  0  0  0
   -2.5565    4.8847    0.0000 C   0  0  0  0  0  0  0  0  0  0  0  0
   -0.7500    1.2990    0.0000 C   0  0  0  0  0  0  0  0  0  0  0  0
    0.7500    1.2990    0.0000 C   0  0  0  0  0  0  0  0  0  0  0  0
  1  2  1  0
  2  3  2  0
  3  4  1  0
  4  5  2  0
  5  6  1  0
  6  7  1  0
  7  8  2  0
  8  9  1  0
  9 10  2  0
 10 11  1  0
 11 12  2  0
 12 13  1  0
 13 14  2  0
  8 15  1  0
 15 16  2  0
 16  2  1  0
 15  5  1  0
 14  9  1  0
M  END
>  <activity_comment>  (178) 
active

>  <activity_id>  (178) 
9626392

>  <activity_properties>  (178) 
[]

>  <assay_chembl_id>  (178) 
CHEMBL1963787

>  <assay_description>  (178) 
PUBCHEM_BIOASSAY: Navigating the Kinome. (Class of assay: other) Panel member name: CAMK2B

>  <assay_type>  (178) 
F

>  <bao_endpoint>  (178) 
BAO_0000192

>  <bao_format>  (178) 
BAO_0000019

>  <bao_label>  (178) 
assay format

>  <canonical_smiles>  (178) 
Brc1ccc2[nH]nc(c3ccccc3)c2c1

>  <data_validity_comment>  (178) 
nan

>  <data_validity_description>  (178) 
nan

>  <document_chembl_id>  (178) 
CHEMBL1201862

>  <document_journal>  (178) 
nan

>  <document_year>  (178) 
nan

>  <ligand_efficiency>  (178) 
nan

>  <molecule_pref_name>  (178) 
nan

>  <parent_molecule_chembl_id>  (178) 
CHEMBL1994074

>  <pchembl_value>  (178) 
5.5

>  <potential_duplicate>  (178) 
False

>  <qudt_units>  (178) 
http://www.openphacts.org/units/Nanomolar

>  <record_id>  (178) 
1584845

>  <relation>  (178) 
=

>  <src_id>  (178) 
7

>  <standard_flag>  (178) 
True

>  <standard_relation>  (178) 
=

>  <standard_text_value>  (178) 
nan

>  <standard_type>  (178) 
Ki

>  <standard_units>  (178) 
nM

>  <standard_upper_value>  (178) 
nan

>  <standard_value>  (178) 
3162.28

>  <target_chembl_id>  (178) 
CHEMBL4121

>  <target_organism>  (178) 
Homo sapiens

>  <target_pref_name>  (178) 
CaM kinase II beta

>  <target_tax_id>  (178) 
9606

>  <text_value>  (178) 
nan

>  <toid>  (178) 
nan

>  <type>  (178) 
pKi

>  <units>  (178) 
nan

>  <uo_units>  (178) 
UO_0000065

>  <upper_value>  (178) 
nan

>  <value>  (178) 
5.5

>  <SMILES>  (178) 
Brc1ccc2[nH]nc(c3ccccc3)c2c1

>  <NAME>  (178) 
CHEMBL1994074

>  <FILTER>  (178) 
OK

>  <MW>  (178) 
273.133

>  <LogP>  (178) 
3.9924

>  <HBD>  (178) 
1

>  <HBA>  (178) 
1

>  <TPSA>  (178) 
28.68

>  <Label>  (178) 
CAMK2B

$$$$
CHEMBL2000801
     RDKit          2D

 30 33  0  0  0  0  0  0  0  0999 V2000
  -14.8535    4.4545    0.0000 F   0  0  0  0  0  0  0  0  0  0  0  0
  -13.7388    3.4509    0.0000 C   0  0  0  0  0  0  0  0  0  0  0  0
  -12.3122    3.9144    0.0000 C   0  0  0  0  0  0  0  0  0  0  0  0
  -11.1975    2.9107    0.0000 C   0  0  0  0  0  0  0  0  0  0  0  0
  -11.5094    1.4435    0.0000 C   0  0  0  0  0  0  0  0  0  0  0  0
  -10.3946    0.4398    0.0000 N   0  0  0  0  0  0  0  0  0  0  0  0
   -8.9681    0.9033    0.0000 C   0  0  0  0  0  0  0  0  0  0  0  0
   -8.6562    2.3705    0.0000 O   0  0  0  0  0  0  0  0  0  0  0  0
   -7.8533   -0.1004    0.0000 N   0  0  0  0  0  0  0  0  0  0  0  0
   -6.4268    0.3631    0.0000 C   0  0  0  0  0  0  0  0  0  0  0  0
   -5.3120   -0.6406    0.0000 C   0  0  0  0  0  0  0  0  0  0  0  0
   -3.8855   -0.1771    0.0000 C   0  0  0  0  0  0  0  0  0  0  0  0
   -3.5736    1.2902    0.0000 C   0  0  0  0  0  0  0  0  0  0  0  0
   -4.6883    2.2939    0.0000 C   0  0  0  0  0  0  0  0  0  0  0  0
   -6.1149    1.8303    0.0000 C   0  0  0  0  0  0  0  0  0  0  0  0
   -2.1470    1.7537    0.0000 C   0  0  0  0  0  0  0  0  0  0  0  0
   -1.8351    3.2209    0.0000 C   0  0  0  0  0  0  0  0  0  0  0  0
   -0.4086    3.6844    0.0000 C   0  0  0  0  0  0  0  0  0  0  0  0
    0.7062    2.6807    0.0000 C   0  0  0  0  0  0  0  0  0  0  0  0
    0.3943    1.2135    0.0000 C   0  0  0  0  0  0  0  0  0  0  0  0
    1.2760    0.0000    0.0000 S   0  0  0  0  0  0  0  0  0  0  0  0
    0.3943   -1.2135    0.0000 N   0  0  0  0  0  0  0  0  0  0  0  0
   -1.0323   -0.7500    0.0000 C   0  0  0  0  0  0  0  0  0  0  0  0
   -1.0323    0.7500    0.0000 C   0  0  0  0  0  0  0  0  0  0  0  0
  -12.9359    0.9799    0.0000 C   0  0  0  0  0  0  0  0  0  0  0  0
  -14.0507    1.9836    0.0000 C   0  0  0  0  0  0  0  0  0  0  0  0
  -15.4772    1.5201    0.0000 C   0  0  0  0  0  0  0  0  0  0  0  0
  -16.9038    1.0566    0.0000 F   0  0  0  0  0  0  0  0  0  0  0  0
  -15.0137    0.0935    0.0000 F   0  0  0  0  0  0  0  0  0  0  0  0
  -15.9408    2.9467    0.0000 F   0  0  0  0  0  0  0  0  0  0  0  0
  1  2  1  0
  2  3  2  0
  3  4  1  0
  4  5  2  0
  5  6  1  0
  6  7  1  0
  7  8  2  0
  7  9  1  0
  9 10  1  0
 10 11  2  0
 11 12  1  0
 12 13  2  0
 13 14  1  0
 14 15  2  0
 13 16  1  0
 16 17  2  0
 17 18  1  0
 18 19  2  0
 19 20  1  0
 20 21  1  0
 21 22  1  0
 22 23  2  0
 23 24  1  0
  5 25  1  0
 25 26  2  0
 26 27  1  0
 27 28  1  0
 27 29  1  0
 27 30  1  0
 26  2  1  0
 15 10  1  0
 24 16  1  0
 24 20  2  0
M  END
>  <activity_comment>  (179) 
active

>  <activity_id>  (179) 
9629963

>  <activity_properties>  (179) 
[]

>  <assay_chembl_id>  (179) 
CHEMBL1963787

>  <assay_description>  (179) 
PUBCHEM_BIOASSAY: Navigating the Kinome. (Class of assay: other) Panel member name: CAMK2B

>  <assay_type>  (179) 
F

>  <bao_endpoint>  (179) 
BAO_0000192

>  <bao_format>  (179) 
BAO_0000019

>  <bao_label>  (179) 
assay format

>  <canonical_smiles>  (179) 
Fc1ccc(NC(=O)Nc2ccc(cc2)c3cccc4sncc34)cc1C(F)(F)F

>  <data_validity_comment>  (179) 
nan

>  <data_validity_description>  (179) 
nan

>  <document_chembl_id>  (179) 
CHEMBL1201862

>  <document_journal>  (179) 
nan

>  <document_year>  (179) 
nan

>  <ligand_efficiency>  (179) 
nan

>  <molecule_pref_name>  (179) 
nan

>  <parent_molecule_chembl_id>  (179) 
CHEMBL2000801

>  <pchembl_value>  (179) 
5.5

>  <potential_duplicate>  (179) 
False

>  <qudt_units>  (179) 
http://www.openphacts.org/units/Nanomolar

>  <record_id>  (179) 
1584261

>  <relation>  (179) 
=

>  <src_id>  (179) 
7

>  <standard_flag>  (179) 
True

>  <standard_relation>  (179) 
=

>  <standard_text_value>  (179) 
nan

>  <standard_type>  (179) 
Ki

>  <standard_units>  (179) 
nM

>  <standard_upper_value>  (179) 
nan

>  <standard_value>  (179) 
3162.28

>  <target_chembl_id>  (179) 
CHEMBL4121

>  <target_organism>  (179) 
Homo sapiens

>  <target_pref_name>  (179) 
CaM kinase II beta

>  <target_tax_id>  (179) 
9606

>  <text_value>  (179) 
nan

>  <toid>  (179) 
nan

>  <type>  (179) 
pKi

>  <units>  (179) 
nan

>  <uo_units>  (179) 
UO_0000065

>  <upper_value>  (179) 
nan

>  <value>  (179) 
5.5

>  <SMILES>  (179) 
Fc1ccc(NC(=O)Nc2ccc(cc2)c3cccc4sncc34)cc1C(F)(F)F

>  <NAME>  (179) 
CHEMBL2000801

>  <FILTER>  (179) 
OK

>  <MW>  (179) 
431.414

>  <LogP>  (179) 
6.7652

>  <HBD>  (179) 
2

>  <HBA>  (179) 
3

>  <TPSA>  (179) 
54.02

>  <Label>  (179) 
CAMK2B

$$$$
CHEMBL2003638
     RDKit          2D

 31 35  0  0  0  0  0  0  0  0999 V2000
   -6.4289   -8.5179    0.0000 F   0  0  0  0  0  0  0  0  0  0  0  0
   -6.1170   -7.0506    0.0000 C   0  0  0  0  0  0  0  0  0  0  0  0
   -7.2317   -6.0469    0.0000 C   0  0  0  0  0  0  0  0  0  0  0  0
   -6.9199   -4.5797    0.0000 C   0  0  0  0  0  0  0  0  0  0  0  0
   -5.4933   -4.1162    0.0000 C   0  0  0  0  0  0  0  0  0  0  0  0
   -4.3786   -5.1199    0.0000 C   0  0  0  0  0  0  0  0  0  0  0  0
   -4.6904   -6.5871    0.0000 C   0  0  0  0  0  0  0  0  0  0  0  0
   -2.9520   -4.6564    0.0000 C   0  0  0  0  0  0  0  0  0  0  0  0
   -1.8373   -5.6601    0.0000 O   0  0  0  0  0  0  0  0  0  0  0  0
   -2.6401   -3.1891    0.0000 N   0  0  0  0  0  0  0  0  0  0  0  0
   -1.2135   -2.7256    0.0000 C   0  0  0  0  0  0  0  0  0  0  0  0
    0.0000   -3.6073    0.0000 N   0  0  0  0  0  0  0  0  0  0  0  0
    1.2135   -2.7256    0.0000 N   0  0  0  0  0  0  0  0  0  0  0  0
    0.7500   -1.2990    0.0000 C   0  0  0  0  0  0  0  0  0  0  0  0
    1.5000    0.0000    0.0000 C   0  0  0  0  0  0  0  0  0  0  0  0
    0.7500    1.2990    0.0000 C   0  0  0  0  0  0  0  0  0  0  0  0
   -0.7500    1.2990    0.0000 C   0  0  0  0  0  0  0  0  0  0  0  0
   -1.5000    0.0000    0.0000 C   0  0  0  0  0  0  0  0  0  0  0  0
   -0.7500   -1.2990    0.0000 C   0  0  0  0  0  0  0  0  0  0  0  0
   -1.5000    2.5981    0.0000 C   0  0  0  0  0  0  0  0  0  0  0  0
   -2.9918    2.7549    0.0000 C   0  0  0  0  0  0  0  0  0  0  0  0
   -3.3037    4.2221    0.0000 N   0  0  0  0  0  0  0  0  0  0  0  0
   -4.6740    4.8322    0.0000 C   0  0  0  0  0  0  0  0  0  0  0  0
   -4.8308    6.3240    0.0000 C   0  0  0  0  0  0  0  0  0  0  0  0
   -3.6172    7.2057    0.0000 C   0  0  0  0  0  0  0  0  0  0  0  0
   -3.7740    8.6974    0.0000 C   0  0  0  0  0  0  0  0  0  0  0  0
   -5.1443    9.3075    0.0000 C   0  0  0  0  0  0  0  0  0  0  0  0
   -6.3579    8.4259    0.0000 C   0  0  0  0  0  0  0  0  0  0  0  0
   -6.2011    6.9341    0.0000 C   0  0  0  0  0  0  0  0  0  0  0  0
   -2.0046    4.9721    0.0000 N   0  0  0  0  0  0  0  0  0  0  0  0
   -0.8899    3.9684    0.0000 N   0  0  0  0  0  0  0  0  0  0  0  0
  1  2  1  0
  2  3  2  0
  3  4  1  0
  4  5  2  0
  5  6  1  0
  6  7  2  0
  6  8  1  0
  8  9  2  0
  8 10  1  0
 10 11  1  0
 11 12  2  0
 12 13  1  0
 13 14  1  0
 14 15  2  0
 15 16  1  0
 16 17  2  0
 17 18  1  0
 18 19  2  0
 17 20  1  0
 20 21  2  0
 21 22  1  0
 22 23  1  0
 23 24  1  0
 24 25  2  0
 25 26  1  0
 26 27  2  0
 27 28  1  0
 28 29  2  0
 22 30  1  0
 30 31  2  0
  7  2  1  0
 19 11  1  0
 19 14  1  0
 31 20  1  0
 29 24  1  0
M  END
>  <activity_comment>  (180) 
active

>  <activity_id>  (180) 
9629970

>  <activity_properties>  (180) 
[]

>  <assay_chembl_id>  (180) 
CHEMBL1963787

>  <assay_description>  (180) 
PUBCHEM_BIOASSAY: Navigating the Kinome. (Class of assay: other) Panel member name: CAMK2B

>  <assay_type>  (180) 
F

>  <bao_endpoint>  (180) 
BAO_0000192

>  <bao_format>  (180) 
BAO_0000019

>  <bao_label>  (180) 
assay format

>  <canonical_smiles>  (180) 
Fc1cccc(c1)C(=O)Nc2n[nH]c3ccc(cc23)c4cn(Cc5ccccc5)nn4

>  <data_validity_comment>  (180) 
nan

>  <data_validity_description>  (180) 
nan

>  <document_chembl_id>  (180) 
CHEMBL1201862

>  <document_journal>  (180) 
nan

>  <document_year>  (180) 
nan

>  <ligand_efficiency>  (180) 
nan

>  <molecule_pref_name>  (180) 
nan

>  <parent_molecule_chembl_id>  (180) 
CHEMBL2003638

>  <pchembl_value>  (180) 
5.6

>  <potential_duplicate>  (180) 
False

>  <qudt_units>  (180) 
http://www.openphacts.org/units/Nanomolar

>  <record_id>  (180) 
1584396

>  <relation>  (180) 
=

>  <src_id>  (180) 
7

>  <standard_flag>  (180) 
True

>  <standard_relation>  (180) 
=

>  <standard_text_value>  (180) 
nan

>  <standard_type>  (180) 
Ki

>  <standard_units>  (180) 
nM

>  <standard_upper_value>  (180) 
nan

>  <standard_value>  (180) 
2511.89

>  <target_chembl_id>  (180) 
CHEMBL4121

>  <target_organism>  (180) 
Homo sapiens

>  <target_pref_name>  (180) 
CaM kinase II beta

>  <target_tax_id>  (180) 
9606

>  <text_value>  (180) 
nan

>  <toid>  (180) 
nan

>  <type>  (180) 
pKi

>  <units>  (180) 
nan

>  <uo_units>  (180) 
UO_0000065

>  <upper_value>  (180) 
nan

>  <value>  (180) 
5.6

>  <SMILES>  (180) 
Fc1cccc(c1)C(=O)Nc2n[nH]c3ccc(cc23)c4cn(Cc5ccccc5)nn4

>  <NAME>  (180) 
CHEMBL2003638

>  <FILTER>  (180) 
OK

>  <MW>  (180) 
412.428

>  <LogP>  (180) 
4.2611

>  <HBD>  (180) 
2

>  <HBA>  (180) 
5

>  <TPSA>  (180) 
88.49

>  <Label>  (180) 
CAMK2B

$$$$
CHEMBL1375640
     RDKit          2D

 22 24  0  0  0  0  0  0  0  0999 V2000
    4.6740   -7.4303    0.0000 C   0  0  0  0  0  0  0  0  0  0  0  0
    3.3037   -6.8202    0.0000 C   0  0  0  0  0  0  0  0  0  0  0  0
    2.9918   -5.3529    0.0000 N   0  0  0  0  0  0  0  0  0  0  0  0
    1.5000   -5.1962    0.0000 C   0  0  0  0  0  0  0  0  0  0  0  0
    0.7500   -3.8971    0.0000 C   0  0  0  0  0  0  0  0  0  0  0  0
    1.5000   -2.5981    0.0000 O   0  0  0  0  0  0  0  0  0  0  0  0
    0.7500   -1.2990    0.0000 C   0  0  0  0  0  0  0  0  0  0  0  0
    1.5000    0.0000    0.0000 C   0  0  0  0  0  0  0  0  0  0  0  0
    0.7500    1.2990    0.0000 C   0  0  0  0  0  0  0  0  0  0  0  0
   -0.7500    1.2990    0.0000 C   0  0  0  0  0  0  0  0  0  0  0  0
   -1.5000    0.0000    0.0000 C   0  0  0  0  0  0  0  0  0  0  0  0
   -0.7500   -1.2990    0.0000 C   0  0  0  0  0  0  0  0  0  0  0  0
   -1.5000   -2.5981    0.0000 Cl  0  0  0  0  0  0  0  0  0  0  0  0
    0.8899   -6.5665    0.0000 S   0  0  0  0  0  0  0  0  0  0  0  0
    2.0046   -7.5702    0.0000 C   0  0  0  0  0  0  0  0  0  0  0  0
    1.8478   -9.0619    0.0000 C   0  0  0  0  0  0  0  0  0  0  0  0
    0.4775   -9.6721    0.0000 C   0  0  0  0  0  0  0  0  0  0  0  0
    0.3207  -11.1638    0.0000 C   0  0  0  0  0  0  0  0  0  0  0  0
    1.5342  -12.0455    0.0000 N   0  0  0  0  0  0  0  0  0  0  0  0
    2.9046  -11.4354    0.0000 C   0  0  0  0  0  0  0  0  0  0  0  0
    4.1181  -12.3171    0.0000 N   0  0  0  0  0  0  0  0  0  0  0  0
    3.0613   -9.9436    0.0000 N   0  0  0  0  0  0  0  0  0  0  0  0
  1  2  1  0
  2  3  1  0
  3  4  2  0
  4  5  1  0
  5  6  1  0
  6  7  1  0
  7  8  2  0
  8  9  1  0
  9 10  2  0
 10 11  1  0
 11 12  2  0
 12 13  1  0
  4 14  1  0
 14 15  1  0
 15 16  1  0
 16 17  2  0
 17 18  1  0
 18 19  2  0
 19 20  1  0
 20 21  1  0
 20 22  2  0
 15  2  2  0
 12  7  1  0
 22 16  1  0
M  END
>  <activity_comment>  (181) 
active

>  <activity_id>  (181) 
9629976

>  <activity_properties>  (181) 
[]

>  <assay_chembl_id>  (181) 
CHEMBL1963787

>  <assay_description>  (181) 
PUBCHEM_BIOASSAY: Navigating the Kinome. (Class of assay: other) Panel member name: CAMK2B

>  <assay_type>  (181) 
F

>  <bao_endpoint>  (181) 
BAO_0000192

>  <bao_format>  (181) 
BAO_0000019

>  <bao_label>  (181) 
assay format

>  <canonical_smiles>  (181) 
Cc1nc(COc2ccccc2Cl)sc1c3ccnc(N)n3

>  <data_validity_comment>  (181) 
nan

>  <data_validity_description>  (181) 
nan

>  <document_chembl_id>  (181) 
CHEMBL1201862

>  <document_journal>  (181) 
nan

>  <document_year>  (181) 
nan

>  <ligand_efficiency>  (181) 
nan

>  <molecule_pref_name>  (181) 
nan

>  <parent_molecule_chembl_id>  (181) 
CHEMBL1375640

>  <pchembl_value>  (181) 
5.1

>  <potential_duplicate>  (181) 
False

>  <qudt_units>  (181) 
http://www.openphacts.org/units/Nanomolar

>  <record_id>  (181) 
1585291

>  <relation>  (181) 
=

>  <src_id>  (181) 
7

>  <standard_flag>  (181) 
True

>  <standard_relation>  (181) 
=

>  <standard_text_value>  (181) 
nan

>  <standard_type>  (181) 
Ki

>  <standard_units>  (181) 
nM

>  <standard_upper_value>  (181) 
nan

>  <standard_value>  (181) 
7943.28

>  <target_chembl_id>  (181) 
CHEMBL4121

>  <target_organism>  (181) 
Homo sapiens

>  <target_pref_name>  (181) 
CaM kinase II beta

>  <target_tax_id>  (181) 
9606

>  <text_value>  (181) 
nan

>  <toid>  (181) 
nan

>  <type>  (181) 
pKi

>  <units>  (181) 
nan

>  <uo_units>  (181) 
UO_0000065

>  <upper_value>  (181) 
nan

>  <value>  (181) 
5.1

>  <SMILES>  (181) 
Cc1nc(COc2ccccc2Cl)sc1c3ccnc(N)n3

>  <NAME>  (181) 
CHEMBL1375640

>  <FILTER>  (181) 
OK

>  <MW>  (181) 
332.816

>  <LogP>  (181) 
3.72312

>  <HBD>  (181) 
1

>  <HBA>  (181) 
6

>  <TPSA>  (181) 
73.92

>  <Label>  (181) 
CAMK2B

$$$$
CHEMBL392642
     RDKit          2D

 29 31  0  0  0  0  0  0  0  0999 V2000
    3.7500   -1.2990    0.0000 C   0  0  0  0  0  0  0  0  0  0  0  0
    3.0000    0.0000    0.0000 S   0  0  0  0  0  0  0  0  0  0  0  0
    1.5000    0.0000    0.0000 C   0  0  0  0  0  0  0  0  0  0  0  0
    0.7500   -1.2990    0.0000 C   0  0  0  0  0  0  0  0  0  0  0  0
   -0.7500   -1.2990    0.0000 C   0  0  0  0  0  0  0  0  0  0  0  0
   -1.5000    0.0000    0.0000 C   0  0  0  0  0  0  0  0  0  0  0  0
   -0.7500    1.2990    0.0000 C   0  0  0  0  0  0  0  0  0  0  0  0
    0.7500    1.2990    0.0000 C   0  0  0  0  0  0  0  0  0  0  0  0
    1.5000    2.5981    0.0000 C   0  0  0  0  0  0  0  0  0  0  0  0
    3.0000    2.5981    0.0000 N   0  0  0  0  0  0  0  0  0  0  0  0
    3.7500    3.8971    0.0000 C   0  0  0  0  0  0  0  0  0  0  0  0
    5.2500    3.8971    0.0000 N   0  0  0  0  0  0  0  0  0  0  0  0
    6.0000    5.1962    0.0000 C   0  0  0  0  0  0  0  0  0  0  0  0
    5.2500    6.4952    0.0000 C   0  0  0  0  0  0  0  0  0  0  0  0
    3.7500    6.4952    0.0000 C   0  0  0  0  0  0  0  0  0  0  0  0
    3.0000    7.7942    0.0000 N   0  0  0  0  0  0  0  0  0  0  0  0
    1.5000    7.7942    0.0000 C   0  0  0  0  0  0  0  0  0  0  0  0
    0.7500    9.0933    0.0000 C   0  0  0  0  0  0  0  0  0  0  0  0
    1.5000   10.3923    0.0000 C   0  0  0  0  0  0  0  0  0  0  0  0
    0.7500   11.6913    0.0000 C   0  0  0  0  0  0  0  0  0  0  0  0
   -0.7500   11.6913    0.0000 C   0  0  0  0  0  0  0  0  0  0  0  0
   -1.5000   12.9904    0.0000 C   0  0  0  0  0  0  0  0  0  0  0  0
   -0.7500   14.2894    0.0000 N   0  0  0  0  0  0  0  0  0  0  0  0
   -1.5000   10.3923    0.0000 C   0  0  0  0  0  0  0  0  0  0  0  0
   -0.7500    9.0933    0.0000 C   0  0  0  0  0  0  0  0  0  0  0  0
    3.0000    5.1962    0.0000 N   0  0  0  0  0  0  0  0  0  0  0  0
    6.0000    7.7942    0.0000 N   0  0  0  0  0  0  0  0  0  0  0  0
    5.2500    9.0933    0.0000 O   0  0  0  0  0  0  0  0  0  0  0  0
    7.5000    7.7942    0.0000 O   0  0  0  0  0  0  0  0  0  0  0  0
  1  2  1  0
  2  3  1  0
  3  4  2  0
  4  5  1  0
  5  6  2  0
  6  7  1  0
  7  8  2  0
  8  9  1  0
  9 10  1  0
 10 11  1  0
 11 12  2  0
 12 13  1  0
 13 14  2  0
 14 15  1  0
 15 16  1  0
 16 17  1  0
 17 18  1  0
 18 19  1  0
 19 20  1  0
 20 21  1  0
 21 22  1  0
 22 23  1  0
 21 24  1  0
 24 25  1  0
 15 26  2  0
 14 27  1  0
 27 28  2  0
 27 29  1  0
  8  3  1  0
 26 11  1  0
 25 18  1  0
M  CHG  2  27   1  29  -1
M  END
>  <activity_comment>  (182) 
active

>  <activity_id>  (182) 
9629987

>  <activity_properties>  (182) 
[]

>  <assay_chembl_id>  (182) 
CHEMBL1963787

>  <assay_description>  (182) 
PUBCHEM_BIOASSAY: Navigating the Kinome. (Class of assay: other) Panel member name: CAMK2B

>  <assay_type>  (182) 
F

>  <bao_endpoint>  (182) 
BAO_0000192

>  <bao_format>  (182) 
BAO_0000019

>  <bao_label>  (182) 
assay format

>  <canonical_smiles>  (182) 
CSc1ccccc1CNc2ncc(c(NCC3CCC(CN)CC3)n2)[N+](=O)[O-]

>  <data_validity_comment>  (182) 
nan

>  <data_validity_description>  (182) 
nan

>  <document_chembl_id>  (182) 
CHEMBL1201862

>  <document_journal>  (182) 
nan

>  <document_year>  (182) 
nan

>  <ligand_efficiency>  (182) 
nan

>  <molecule_pref_name>  (182) 
nan

>  <parent_molecule_chembl_id>  (182) 
CHEMBL392642

>  <pchembl_value>  (182) 
5.5

>  <potential_duplicate>  (182) 
False

>  <qudt_units>  (182) 
http://www.openphacts.org/units/Nanomolar

>  <record_id>  (182) 
1585353

>  <relation>  (182) 
=

>  <src_id>  (182) 
7

>  <standard_flag>  (182) 
True

>  <standard_relation>  (182) 
=

>  <standard_text_value>  (182) 
nan

>  <standard_type>  (182) 
Ki

>  <standard_units>  (182) 
nM

>  <standard_upper_value>  (182) 
nan

>  <standard_value>  (182) 
3162.28

>  <target_chembl_id>  (182) 
CHEMBL4121

>  <target_organism>  (182) 
Homo sapiens

>  <target_pref_name>  (182) 
CaM kinase II beta

>  <target_tax_id>  (182) 
9606

>  <text_value>  (182) 
nan

>  <toid>  (182) 
nan

>  <type>  (182) 
pKi

>  <units>  (182) 
nan

>  <uo_units>  (182) 
UO_0000065

>  <upper_value>  (182) 
nan

>  <value>  (182) 
5.5

>  <SMILES>  (182) 
CSc1ccccc1CNc2ncc(c(NCC3CCC(CN)CC3)n2)[N+](=O)[O-]

>  <NAME>  (182) 
CHEMBL392642

>  <FILTER>  (182) 
OK

>  <MW>  (182) 
416.551

>  <LogP>  (182) 
3.8958

>  <HBD>  (182) 
3

>  <HBA>  (182) 
8

>  <TPSA>  (182) 
119.0

>  <Label>  (182) 
CAMK2B

$$$$
CHEMBL231209
     RDKit          2D

 27 30  0  0  0  0  0  0  0  0999 V2000
    3.0000    0.0000    0.0000 N   0  0  0  0  0  0  0  0  0  0  0  0
    1.5000    0.0000    0.0000 C   0  0  0  0  0  0  0  0  0  0  0  0
    0.7500   -1.2990    0.0000 N   0  0  0  0  0  0  0  0  0  0  0  0
   -0.7500   -1.2990    0.0000 C   0  0  0  0  0  0  0  0  0  0  0  0
   -1.5000    0.0000    0.0000 C   0  0  0  0  0  0  0  0  0  0  0  0
   -0.7500    1.2990    0.0000 C   0  0  0  0  0  0  0  0  0  0  0  0
   -1.2135    2.7256    0.0000 S   0  0  0  0  0  0  0  0  0  0  0  0
   -0.0000    3.6073    0.0000 C   0  0  0  0  0  0  0  0  0  0  0  0
    1.2135    2.7256    0.0000 C   0  0  0  0  0  0  0  0  0  0  0  0
    2.6401    3.1891    0.0000 C   0  0  0  0  0  0  0  0  0  0  0  0
    3.7548    2.1855    0.0000 C   0  0  0  0  0  0  0  0  0  0  0  0
    5.1814    2.6490    0.0000 C   0  0  0  0  0  0  0  0  0  0  0  0
    5.4933    4.1162    0.0000 C   0  0  0  0  0  0  0  0  0  0  0  0
    6.9199    4.5797    0.0000 N   0  0  0  0  0  0  0  0  0  0  0  0
    8.0346    3.5760    0.0000 C   0  0  0  0  0  0  0  0  0  0  0  0
    7.7227    2.1088    0.0000 O   0  0  0  0  0  0  0  0  0  0  0  0
    9.4612    4.0396    0.0000 N   0  0  0  0  0  0  0  0  0  0  0  0
   10.5759    3.0359    0.0000 C   0  0  0  0  0  0  0  0  0  0  0  0
   10.2640    1.5686    0.0000 C   0  0  0  0  0  0  0  0  0  0  0  0
   11.3787    0.5649    0.0000 C   0  0  0  0  0  0  0  0  0  0  0  0
   12.8053    1.0285    0.0000 C   0  0  0  0  0  0  0  0  0  0  0  0
   13.1172    2.4957    0.0000 C   0  0  0  0  0  0  0  0  0  0  0  0
   14.5438    2.9592    0.0000 F   0  0  0  0  0  0  0  0  0  0  0  0
   12.0025    3.4994    0.0000 C   0  0  0  0  0  0  0  0  0  0  0  0
    4.3786    5.1199    0.0000 C   0  0  0  0  0  0  0  0  0  0  0  0
    2.9520    4.6564    0.0000 C   0  0  0  0  0  0  0  0  0  0  0  0
    0.7500    1.2990    0.0000 C   0  0  0  0  0  0  0  0  0  0  0  0
  1  2  1  0
  2  3  2  0
  3  4  1  0
  4  5  2  0
  5  6  1  0
  6  7  1  0
  7  8  1  0
  8  9  2  0
  9 10  1  0
 10 11  2  0
 11 12  1  0
 12 13  2  0
 13 14  1  0
 14 15  1  0
 15 16  2  0
 15 17  1  0
 17 18  1  0
 18 19  2  0
 19 20  1  0
 20 21  2  0
 21 22  1  0
 22 23  1  0
 22 24  2  0
 13 25  1  0
 25 26  2  0
  9 27  1  0
 27  2  1  0
 27  6  2  0
 26 10  1  0
 24 18  1  0
M  END
>  <activity_comment>  (183) 
active

>  <activity_id>  (183) 
9629992

>  <activity_properties>  (183) 
[]

>  <assay_chembl_id>  (183) 
CHEMBL1963787

>  <assay_description>  (183) 
PUBCHEM_BIOASSAY: Navigating the Kinome. (Class of assay: other) Panel member name: CAMK2B

>  <assay_type>  (183) 
F

>  <bao_endpoint>  (183) 
BAO_0000192

>  <bao_format>  (183) 
BAO_0000019

>  <bao_label>  (183) 
assay format

>  <canonical_smiles>  (183) 
Nc1nccc2scc(c3ccc(NC(=O)Nc4cccc(F)c4)cc3)c12

>  <data_validity_comment>  (183) 
nan

>  <data_validity_description>  (183) 
nan

>  <document_chembl_id>  (183) 
CHEMBL1201862

>  <document_journal>  (183) 
nan

>  <document_year>  (183) 
nan

>  <ligand_efficiency>  (183) 
nan

>  <molecule_pref_name>  (183) 
nan

>  <parent_molecule_chembl_id>  (183) 
CHEMBL231209

>  <pchembl_value>  (183) 
5.3

>  <potential_duplicate>  (183) 
False

>  <qudt_units>  (183) 
http://www.openphacts.org/units/Nanomolar

>  <record_id>  (183) 
1584229

>  <relation>  (183) 
=

>  <src_id>  (183) 
7

>  <standard_flag>  (183) 
True

>  <standard_relation>  (183) 
=

>  <standard_text_value>  (183) 
nan

>  <standard_type>  (183) 
Ki

>  <standard_units>  (183) 
nM

>  <standard_upper_value>  (183) 
nan

>  <standard_value>  (183) 
5011.87

>  <target_chembl_id>  (183) 
CHEMBL4121

>  <target_organism>  (183) 
Homo sapiens

>  <target_pref_name>  (183) 
CaM kinase II beta

>  <target_tax_id>  (183) 
9606

>  <text_value>  (183) 
nan

>  <toid>  (183) 
nan

>  <type>  (183) 
pKi

>  <units>  (183) 
nan

>  <uo_units>  (183) 
UO_0000065

>  <upper_value>  (183) 
nan

>  <value>  (183) 
5.3

>  <SMILES>  (183) 
Nc1nccc2scc(c3ccc(NC(=O)Nc4cccc(F)c4)cc3)c12

>  <NAME>  (183) 
CHEMBL231209

>  <FILTER>  (183) 
OK

>  <MW>  (183) 
378.432

>  <LogP>  (183) 
5.3286

>  <HBD>  (183) 
3

>  <HBA>  (183) 
4

>  <TPSA>  (183) 
80.04

>  <Label>  (183) 
CAMK2B

$$$$
CHEMBL1975357
     RDKit          2D

 27 30  0  0  0  0  0  0  0  0999 V2000
   -3.9150   -6.5465    0.0000 C   0  0  0  0  0  0  0  0  0  0  0  0
   -4.3786   -5.1199    0.0000 C   0  0  0  0  0  0  0  0  0  0  0  0
   -4.8421   -3.6933    0.0000 C   0  0  0  0  0  0  0  0  0  0  0  0
   -5.8051   -5.5834    0.0000 C   0  0  0  0  0  0  0  0  0  0  0  0
   -2.9520   -4.6564    0.0000 O   0  0  0  0  0  0  0  0  0  0  0  0
   -2.6401   -3.1891    0.0000 C   0  0  0  0  0  0  0  0  0  0  0  0
   -3.7548   -2.1855    0.0000 O   0  0  0  0  0  0  0  0  0  0  0  0
   -1.2135   -2.7256    0.0000 N   0  0  0  0  0  0  0  0  0  0  0  0
   -0.0000   -3.6073    0.0000 C   0  0  0  0  0  0  0  0  0  0  0  0
    1.2135   -2.7256    0.0000 C   0  0  0  0  0  0  0  0  0  0  0  0
    2.6401   -3.1891    0.0000 C   0  0  0  0  0  0  0  0  0  0  0  0
    3.8536   -2.3075    0.0000 C   0  0  0  0  0  0  0  0  0  0  0  0
    5.0672   -3.1891    0.0000 N   0  0  0  0  0  0  0  0  0  0  0  0
    4.6036   -4.6157    0.0000 C   0  0  0  0  0  0  0  0  0  0  0  0
    3.1036   -4.6157    0.0000 N   0  0  0  0  0  0  0  0  0  0  0  0
    2.2220   -5.8293    0.0000 C   0  0  0  0  0  0  0  0  0  0  0  0
    0.7302   -5.6725    0.0000 C   0  0  0  0  0  0  0  0  0  0  0  0
   -0.1515   -6.8860    0.0000 C   0  0  0  0  0  0  0  0  0  0  0  0
    0.4586   -8.2563    0.0000 C   0  0  0  0  0  0  0  0  0  0  0  0
    1.9504   -8.4131    0.0000 C   0  0  0  0  0  0  0  0  0  0  0  0
    2.8321   -7.1996    0.0000 C   0  0  0  0  0  0  0  0  0  0  0  0
    0.7500   -1.2990    0.0000 C   0  0  0  0  0  0  0  0  0  0  0  0
    1.5000    0.0000    0.0000 C   0  0  0  0  0  0  0  0  0  0  0  0
    0.7500    1.2990    0.0000 C   0  0  0  0  0  0  0  0  0  0  0  0
   -0.7500    1.2990    0.0000 C   0  0  0  0  0  0  0  0  0  0  0  0
   -1.5000    0.0000    0.0000 C   0  0  0  0  0  0  0  0  0  0  0  0
   -0.7500   -1.2990    0.0000 C   0  0  0  0  0  0  0  0  0  0  0  0
  1  2  1  0
  2  3  1  0
  2  4  1  0
  2  5  1  0
  5  6  1  0
  6  7  2  0
  6  8  1  0
  8  9  1  0
  9 10  2  0
 10 11  1  0
 11 12  2  0
 12 13  1  0
 13 14  2  0
 14 15  1  0
 15 16  1  0
 16 17  1  0
 17 18  1  0
 18 19  1  0
 19 20  1  0
 20 21  1  0
 10 22  1  0
 22 23  2  0
 23 24  1  0
 24 25  2  0
 25 26  1  0
 26 27  2  0
 27  8  1  0
 15 11  1  0
 21 16  1  0
 27 22  1  0
M  END
>  <activity_comment>  (184) 
active

>  <activity_id>  (184) 
9629993

>  <activity_properties>  (184) 
[]

>  <assay_chembl_id>  (184) 
CHEMBL1963787

>  <assay_description>  (184) 
PUBCHEM_BIOASSAY: Navigating the Kinome. (Class of assay: other) Panel member name: CAMK2B

>  <assay_type>  (184) 
F

>  <bao_endpoint>  (184) 
BAO_0000192

>  <bao_format>  (184) 
BAO_0000019

>  <bao_label>  (184) 
assay format

>  <canonical_smiles>  (184) 
CC(C)(C)OC(=O)n1cc(c2cncn2C3CCCCC3)c4ccccc14

>  <data_validity_comment>  (184) 
nan

>  <data_validity_description>  (184) 
nan

>  <document_chembl_id>  (184) 
CHEMBL1201862

>  <document_journal>  (184) 
nan

>  <document_year>  (184) 
nan

>  <ligand_efficiency>  (184) 
nan

>  <molecule_pref_name>  (184) 
nan

>  <parent_molecule_chembl_id>  (184) 
CHEMBL1975357

>  <pchembl_value>  (184) 
5.3

>  <potential_duplicate>  (184) 
False

>  <qudt_units>  (184) 
http://www.openphacts.org/units/Nanomolar

>  <record_id>  (184) 
1585526

>  <relation>  (184) 
=

>  <src_id>  (184) 
7

>  <standard_flag>  (184) 
True

>  <standard_relation>  (184) 
=

>  <standard_text_value>  (184) 
nan

>  <standard_type>  (184) 
Ki

>  <standard_units>  (184) 
nM

>  <standard_upper_value>  (184) 
nan

>  <standard_value>  (184) 
5011.87

>  <target_chembl_id>  (184) 
CHEMBL4121

>  <target_organism>  (184) 
Homo sapiens

>  <target_pref_name>  (184) 
CaM kinase II beta

>  <target_tax_id>  (184) 
9606

>  <text_value>  (184) 
nan

>  <toid>  (184) 
nan

>  <type>  (184) 
pKi

>  <units>  (184) 
nan

>  <uo_units>  (184) 
UO_0000065

>  <upper_value>  (184) 
nan

>  <value>  (184) 
5.3

>  <SMILES>  (184) 
CC(C)(C)OC(=O)n1cc(c2cncn2C3CCCCC3)c4ccccc14

>  <NAME>  (184) 
CHEMBL1975357

>  <FILTER>  (184) 
OK

>  <MW>  (184) 
365.477

>  <LogP>  (184) 
5.7932

>  <HBD>  (184) 
0

>  <HBA>  (184) 
5

>  <TPSA>  (184) 
49.05

>  <Label>  (184) 
CAMK2B

$$$$
CHEMBL1976220
     RDKit          2D

 27 30  0  0  0  0  0  0  0  0999 V2000
    3.0000    0.0000    0.0000 N   0  0  0  0  0  0  0  0  0  0  0  0
    1.5000    0.0000    0.0000 C   0  0  0  0  0  0  0  0  0  0  0  0
    0.7500   -1.2990    0.0000 N   0  0  0  0  0  0  0  0  0  0  0  0
   -0.7500   -1.2990    0.0000 C   0  0  0  0  0  0  0  0  0  0  0  0
   -1.5000    0.0000    0.0000 C   0  0  0  0  0  0  0  0  0  0  0  0
   -0.7500    1.2990    0.0000 C   0  0  0  0  0  0  0  0  0  0  0  0
   -1.2135    2.7256    0.0000 S   0  0  0  0  0  0  0  0  0  0  0  0
   -0.0000    3.6073    0.0000 C   0  0  0  0  0  0  0  0  0  0  0  0
    1.2135    2.7256    0.0000 C   0  0  0  0  0  0  0  0  0  0  0  0
    2.6401    3.1891    0.0000 C   0  0  0  0  0  0  0  0  0  0  0  0
    3.7548    2.1855    0.0000 C   0  0  0  0  0  0  0  0  0  0  0  0
    5.1814    2.6490    0.0000 C   0  0  0  0  0  0  0  0  0  0  0  0
    5.4933    4.1162    0.0000 C   0  0  0  0  0  0  0  0  0  0  0  0
    6.9199    4.5797    0.0000 N   0  0  0  0  0  0  0  0  0  0  0  0
    8.0346    3.5760    0.0000 C   0  0  0  0  0  0  0  0  0  0  0  0
    7.7227    2.1088    0.0000 O   0  0  0  0  0  0  0  0  0  0  0  0
    9.4612    4.0396    0.0000 N   0  0  0  0  0  0  0  0  0  0  0  0
   10.5759    3.0359    0.0000 C   0  0  0  0  0  0  0  0  0  0  0  0
   10.2640    1.5686    0.0000 C   0  0  0  0  0  0  0  0  0  0  0  0
   11.3787    0.5649    0.0000 C   0  0  0  0  0  0  0  0  0  0  0  0
   12.8053    1.0285    0.0000 C   0  0  0  0  0  0  0  0  0  0  0  0
   13.1172    2.4957    0.0000 C   0  0  0  0  0  0  0  0  0  0  0  0
   14.5438    2.9592    0.0000 Br  0  0  0  0  0  0  0  0  0  0  0  0
   12.0025    3.4994    0.0000 C   0  0  0  0  0  0  0  0  0  0  0  0
    4.3786    5.1199    0.0000 C   0  0  0  0  0  0  0  0  0  0  0  0
    2.9520    4.6564    0.0000 C   0  0  0  0  0  0  0  0  0  0  0  0
    0.7500    1.2990    0.0000 C   0  0  0  0  0  0  0  0  0  0  0  0
  1  2  1  0
  2  3  2  0
  3  4  1  0
  4  5  2  0
  5  6  1  0
  6  7  1  0
  7  8  1  0
  8  9  2  0
  9 10  1  0
 10 11  2  0
 11 12  1  0
 12 13  2  0
 13 14  1  0
 14 15  1  0
 15 16  2  0
 15 17  1  0
 17 18  1  0
 18 19  2  0
 19 20  1  0
 20 21  2  0
 21 22  1  0
 22 23  1  0
 22 24  2  0
 13 25  1  0
 25 26  2  0
  9 27  1  0
 27  2  1  0
 27  6  2  0
 26 10  1  0
 24 18  1  0
M  END
>  <activity_comment>  (185) 
active

>  <activity_id>  (185) 
9629994

>  <activity_properties>  (185) 
[]

>  <assay_chembl_id>  (185) 
CHEMBL1963787

>  <assay_description>  (185) 
PUBCHEM_BIOASSAY: Navigating the Kinome. (Class of assay: other) Panel member name: CAMK2B

>  <assay_type>  (185) 
F

>  <bao_endpoint>  (185) 
BAO_0000192

>  <bao_format>  (185) 
BAO_0000019

>  <bao_label>  (185) 
assay format

>  <canonical_smiles>  (185) 
Nc1nccc2scc(c3ccc(NC(=O)Nc4cccc(Br)c4)cc3)c12

>  <data_validity_comment>  (185) 
nan

>  <data_validity_description>  (185) 
nan

>  <document_chembl_id>  (185) 
CHEMBL1201862

>  <document_journal>  (185) 
nan

>  <document_year>  (185) 
nan

>  <ligand_efficiency>  (185) 
nan

>  <molecule_pref_name>  (185) 
nan

>  <parent_molecule_chembl_id>  (185) 
CHEMBL1976220

>  <pchembl_value>  (185) 
5.5

>  <potential_duplicate>  (185) 
False

>  <qudt_units>  (185) 
http://www.openphacts.org/units/Nanomolar

>  <record_id>  (185) 
1584244

>  <relation>  (185) 
=

>  <src_id>  (185) 
7

>  <standard_flag>  (185) 
True

>  <standard_relation>  (185) 
=

>  <standard_text_value>  (185) 
nan

>  <standard_type>  (185) 
Ki

>  <standard_units>  (185) 
nM

>  <standard_upper_value>  (185) 
nan

>  <standard_value>  (185) 
3162.28

>  <target_chembl_id>  (185) 
CHEMBL4121

>  <target_organism>  (185) 
Homo sapiens

>  <target_pref_name>  (185) 
CaM kinase II beta

>  <target_tax_id>  (185) 
9606

>  <text_value>  (185) 
nan

>  <toid>  (185) 
nan

>  <type>  (185) 
pKi

>  <units>  (185) 
nan

>  <uo_units>  (185) 
UO_0000065

>  <upper_value>  (185) 
nan

>  <value>  (185) 
5.5

>  <SMILES>  (185) 
Nc1nccc2scc(c3ccc(NC(=O)Nc4cccc(Br)c4)cc3)c12

>  <NAME>  (185) 
CHEMBL1976220

>  <FILTER>  (185) 
OK

>  <MW>  (185) 
439.338

>  <LogP>  (185) 
5.952

>  <HBD>  (185) 
3

>  <HBA>  (185) 
4

>  <TPSA>  (185) 
80.04

>  <Label>  (185) 
CAMK2B

$$$$
CHEMBL1997617
     RDKit          2D

 36 41  0  0  0  0  0  0  0  0999 V2000
  -11.1996   -5.9703    0.0000 C   0  0  0  0  0  0  0  0  0  0  0  0
   -9.7730   -5.5068    0.0000 N   0  0  0  0  0  0  0  0  0  0  0  0
   -9.4612   -4.0396    0.0000 C   0  0  0  0  0  0  0  0  0  0  0  0
   -8.0346   -3.5760    0.0000 C   0  0  0  0  0  0  0  0  0  0  0  0
   -6.9199   -4.5797    0.0000 N   0  0  0  0  0  0  0  0  0  0  0  0
   -7.2317   -6.0469    0.0000 C   0  0  0  0  0  0  0  0  0  0  0  0
   -8.6583   -6.5105    0.0000 C   0  0  0  0  0  0  0  0  0  0  0  0
   -5.4933   -4.1162    0.0000 C   0  0  0  0  0  0  0  0  0  0  0  0
   -4.3786   -5.1199    0.0000 C   0  0  0  0  0  0  0  0  0  0  0  0
   -2.9520   -4.6564    0.0000 C   0  0  0  0  0  0  0  0  0  0  0  0
   -2.6401   -3.1891    0.0000 C   0  0  0  0  0  0  0  0  0  0  0  0
   -3.7548   -2.1855    0.0000 C   0  0  0  0  0  0  0  0  0  0  0  0
   -5.1814   -2.6490    0.0000 C   0  0  0  0  0  0  0  0  0  0  0  0
   -1.2135   -2.7256    0.0000 N   0  0  0  0  0  0  0  0  0  0  0  0
    0.0000   -3.6073    0.0000 C   0  0  0  0  0  0  0  0  0  0  0  0
    1.2135   -2.7256    0.0000 C   0  0  0  0  0  0  0  0  0  0  0  0
    2.6401   -3.1891    0.0000 C   0  0  0  0  0  0  0  0  0  0  0  0
    2.9520   -4.6564    0.0000 C   0  0  0  0  0  0  0  0  0  0  0  0
    4.3786   -5.1199    0.0000 C   0  0  0  0  0  0  0  0  0  0  0  0
    5.4933   -4.1162    0.0000 C   0  0  0  0  0  0  0  0  0  0  0  0
    6.9199   -4.5797    0.0000 O   0  0  0  0  0  0  0  0  0  0  0  0
    7.2317   -6.0469    0.0000 C   0  0  0  0  0  0  0  0  0  0  0  0
    6.1170   -7.0506    0.0000 C   0  0  0  0  0  0  0  0  0  0  0  0
    6.4289   -8.5179    0.0000 C   0  0  0  0  0  0  0  0  0  0  0  0
    7.8555   -8.9814    0.0000 C   0  0  0  0  0  0  0  0  0  0  0  0
    8.9702   -7.9777    0.0000 C   0  0  0  0  0  0  0  0  0  0  0  0
    8.6583   -6.5105    0.0000 C   0  0  0  0  0  0  0  0  0  0  0  0
    5.1814   -2.6490    0.0000 C   0  0  0  0  0  0  0  0  0  0  0  0
    3.7548   -2.1855    0.0000 C   0  0  0  0  0  0  0  0  0  0  0  0
    0.7500   -1.2990    0.0000 C   0  0  0  0  0  0  0  0  0  0  0  0
    1.5000    0.0000    0.0000 C   0  0  0  0  0  0  0  0  0  0  0  0
    3.0000    0.0000    0.0000 N   0  0  0  0  0  0  0  0  0  0  0  0
    0.7500    1.2990    0.0000 N   0  0  0  0  0  0  0  0  0  0  0  0
   -0.7500    1.2990    0.0000 C   0  0  0  0  0  0  0  0  0  0  0  0
   -1.5000    0.0000    0.0000 N   0  0  0  0  0  0  0  0  0  0  0  0
   -0.7500   -1.2990    0.0000 C   0  0  0  0  0  0  0  0  0  0  0  0
  1  2  1  0
  2  3  1  0
  3  4  1  0
  4  5  1  0
  5  6  1  0
  6  7  1  0
  5  8  1  0
  8  9  1  0
  9 10  1  0
 10 11  1  0
 11 12  1  0
 12 13  1  0
 11 14  1  0
 14 15  1  0
 15 16  2  0
 16 17  1  0
 17 18  2  0
 18 19  1  0
 19 20  2  0
 20 21  1  0
 21 22  1  0
 22 23  2  0
 23 24  1  0
 24 25  2  0
 25 26  1  0
 26 27  2  0
 20 28  1  0
 28 29  2  0
 16 30  1  0
 30 31  2  0
 31 32  1  0
 31 33  1  0
 33 34  2  0
 34 35  1  0
 35 36  2  0
  7  2  1  0
 13  8  1  0
 36 14  1  0
 29 17  1  0
 27 22  1  0
 36 30  1  0
M  END
>  <activity_comment>  (186) 
active

>  <activity_id>  (186) 
9629996

>  <activity_properties>  (186) 
[]

>  <assay_chembl_id>  (186) 
CHEMBL1963787

>  <assay_description>  (186) 
PUBCHEM_BIOASSAY: Navigating the Kinome. (Class of assay: other) Panel member name: CAMK2B

>  <assay_type>  (186) 
F

>  <bao_endpoint>  (186) 
BAO_0000192

>  <bao_format>  (186) 
BAO_0000019

>  <bao_label>  (186) 
assay format

>  <canonical_smiles>  (186) 
CN1CCN(CC1)C2CCC(CC2)n3cc(c4ccc(Oc5ccccc5)cc4)c6c(N)ncnc36

>  <data_validity_comment>  (186) 
nan

>  <data_validity_description>  (186) 
nan

>  <document_chembl_id>  (186) 
CHEMBL1201862

>  <document_journal>  (186) 
nan

>  <document_year>  (186) 
nan

>  <ligand_efficiency>  (186) 
nan

>  <molecule_pref_name>  (186) 
nan

>  <parent_molecule_chembl_id>  (186) 
CHEMBL1997617

>  <pchembl_value>  (186) 
5.4

>  <potential_duplicate>  (186) 
False

>  <qudt_units>  (186) 
http://www.openphacts.org/units/Nanomolar

>  <record_id>  (186) 
1584873

>  <relation>  (186) 
=

>  <src_id>  (186) 
7

>  <standard_flag>  (186) 
True

>  <standard_relation>  (186) 
=

>  <standard_text_value>  (186) 
nan

>  <standard_type>  (186) 
Ki

>  <standard_units>  (186) 
nM

>  <standard_upper_value>  (186) 
nan

>  <standard_value>  (186) 
3981.07

>  <target_chembl_id>  (186) 
CHEMBL4121

>  <target_organism>  (186) 
Homo sapiens

>  <target_pref_name>  (186) 
CaM kinase II beta

>  <target_tax_id>  (186) 
9606

>  <text_value>  (186) 
nan

>  <toid>  (186) 
nan

>  <type>  (186) 
pKi

>  <units>  (186) 
nan

>  <uo_units>  (186) 
UO_0000065

>  <upper_value>  (186) 
nan

>  <value>  (186) 
5.4

>  <SMILES>  (186) 
CN1CCN(CC1)C2CCC(CC2)n3cc(c4ccc(Oc5ccccc5)cc4)c6c(N)ncnc36

>  <NAME>  (186) 
CHEMBL1997617

>  <FILTER>  (186) 
OK

>  <MW>  (186) 
482.632

>  <LogP>  (186) 
5.2039

>  <HBD>  (186) 
1

>  <HBA>  (186) 
7

>  <TPSA>  (186) 
72.44

>  <Label>  (186) 
CAMK2B

$$$$
CHEMBL1987910
     RDKit          2D

 30 33  0  0  0  0  0  0  0  0999 V2000
    3.0000    0.0000    0.0000 N   0  0  0  0  0  0  0  0  0  0  0  0
    1.5000    0.0000    0.0000 C   0  0  0  0  0  0  0  0  0  0  0  0
    0.7500   -1.2990    0.0000 N   0  0  0  0  0  0  0  0  0  0  0  0
   -0.7500   -1.2990    0.0000 C   0  0  0  0  0  0  0  0  0  0  0  0
   -1.5000    0.0000    0.0000 C   0  0  0  0  0  0  0  0  0  0  0  0
   -0.7500    1.2990    0.0000 C   0  0  0  0  0  0  0  0  0  0  0  0
   -1.2135    2.7256    0.0000 S   0  0  0  0  0  0  0  0  0  0  0  0
   -0.0000    3.6073    0.0000 C   0  0  0  0  0  0  0  0  0  0  0  0
    1.2135    2.7256    0.0000 C   0  0  0  0  0  0  0  0  0  0  0  0
    2.6401    3.1891    0.0000 C   0  0  0  0  0  0  0  0  0  0  0  0
    3.7548    2.1855    0.0000 C   0  0  0  0  0  0  0  0  0  0  0  0
    5.1814    2.6490    0.0000 C   0  0  0  0  0  0  0  0  0  0  0  0
    5.4933    4.1162    0.0000 C   0  0  0  0  0  0  0  0  0  0  0  0
    6.9199    4.5797    0.0000 N   0  0  0  0  0  0  0  0  0  0  0  0
    8.0346    3.5760    0.0000 C   0  0  0  0  0  0  0  0  0  0  0  0
    7.7227    2.1088    0.0000 O   0  0  0  0  0  0  0  0  0  0  0  0
    9.4612    4.0396    0.0000 N   0  0  0  0  0  0  0  0  0  0  0  0
   10.5759    3.0359    0.0000 C   0  0  0  0  0  0  0  0  0  0  0  0
   10.2640    1.5686    0.0000 C   0  0  0  0  0  0  0  0  0  0  0  0
   11.3787    0.5649    0.0000 C   0  0  0  0  0  0  0  0  0  0  0  0
   12.8053    1.0285    0.0000 C   0  0  0  0  0  0  0  0  0  0  0  0
   13.1172    2.4957    0.0000 C   0  0  0  0  0  0  0  0  0  0  0  0
   12.0025    3.4994    0.0000 C   0  0  0  0  0  0  0  0  0  0  0  0
   12.3143    4.9666    0.0000 C   0  0  0  0  0  0  0  0  0  0  0  0
   12.6262    6.4338    0.0000 F   0  0  0  0  0  0  0  0  0  0  0  0
   13.7816    4.6547    0.0000 F   0  0  0  0  0  0  0  0  0  0  0  0
   10.8471    5.2785    0.0000 F   0  0  0  0  0  0  0  0  0  0  0  0
    4.3786    5.1199    0.0000 C   0  0  0  0  0  0  0  0  0  0  0  0
    2.9520    4.6564    0.0000 C   0  0  0  0  0  0  0  0  0  0  0  0
    0.7500    1.2990    0.0000 C   0  0  0  0  0  0  0  0  0  0  0  0
  1  2  1  0
  2  3  2  0
  3  4  1  0
  4  5  2  0
  5  6  1  0
  6  7  1  0
  7  8  1  0
  8  9  2  0
  9 10  1  0
 10 11  2  0
 11 12  1  0
 12 13  2  0
 13 14  1  0
 14 15  1  0
 15 16  2  0
 15 17  1  0
 17 18  1  0
 18 19  2  0
 19 20  1  0
 20 21  2  0
 21 22  1  0
 22 23  2  0
 23 24  1  0
 24 25  1  0
 24 26  1  0
 24 27  1  0
 13 28  1  0
 28 29  2  0
  9 30  1  0
 30  2  1  0
 30  6  2  0
 29 10  1  0
 23 18  1  0
M  END
>  <activity_comment>  (187) 
active

>  <activity_id>  (187) 
9630000

>  <activity_properties>  (187) 
[]

>  <assay_chembl_id>  (187) 
CHEMBL1963787

>  <assay_description>  (187) 
PUBCHEM_BIOASSAY: Navigating the Kinome. (Class of assay: other) Panel member name: CAMK2B

>  <assay_type>  (187) 
F

>  <bao_endpoint>  (187) 
BAO_0000192

>  <bao_format>  (187) 
BAO_0000019

>  <bao_label>  (187) 
assay format

>  <canonical_smiles>  (187) 
Nc1nccc2scc(c3ccc(NC(=O)Nc4ccccc4C(F)(F)F)cc3)c12

>  <data_validity_comment>  (187) 
nan

>  <data_validity_description>  (187) 
nan

>  <document_chembl_id>  (187) 
CHEMBL1201862

>  <document_journal>  (187) 
nan

>  <document_year>  (187) 
nan

>  <ligand_efficiency>  (187) 
nan

>  <molecule_pref_name>  (187) 
nan

>  <parent_molecule_chembl_id>  (187) 
CHEMBL1987910

>  <pchembl_value>  (187) 
5.2

>  <potential_duplicate>  (187) 
False

>  <qudt_units>  (187) 
http://www.openphacts.org/units/Nanomolar

>  <record_id>  (187) 
1584209

>  <relation>  (187) 
=

>  <src_id>  (187) 
7

>  <standard_flag>  (187) 
True

>  <standard_relation>  (187) 
=

>  <standard_text_value>  (187) 
nan

>  <standard_type>  (187) 
Ki

>  <standard_units>  (187) 
nM

>  <standard_upper_value>  (187) 
nan

>  <standard_value>  (187) 
6309.57

>  <target_chembl_id>  (187) 
CHEMBL4121

>  <target_organism>  (187) 
Homo sapiens

>  <target_pref_name>  (187) 
CaM kinase II beta

>  <target_tax_id>  (187) 
9606

>  <text_value>  (187) 
nan

>  <toid>  (187) 
nan

>  <type>  (187) 
pKi

>  <units>  (187) 
nan

>  <uo_units>  (187) 
UO_0000065

>  <upper_value>  (187) 
nan

>  <value>  (187) 
5.2

>  <SMILES>  (187) 
Nc1nccc2scc(c3ccc(NC(=O)Nc4ccccc4C(F)(F)F)cc3)c12

>  <NAME>  (187) 
CHEMBL1987910

>  <FILTER>  (187) 
OK

>  <MW>  (187) 
428.439

>  <LogP>  (187) 
6.2083

>  <HBD>  (187) 
3

>  <HBA>  (187) 
4

>  <TPSA>  (187) 
80.04

>  <Label>  (187) 
CAMK2B

$$$$
CHEMBL1980297
     RDKit          2D

 35 39  0  0  0  0  0  0  0  0999 V2000
   -3.5736    1.2902    0.0000 N   0  0  0  0  0  0  0  0  0  0  0  0
   -2.1470    1.7537    0.0000 C   0  0  0  0  0  0  0  0  0  0  0  0
   -1.8351    3.2209    0.0000 N   0  0  0  0  0  0  0  0  0  0  0  0
   -0.4086    3.6844    0.0000 C   0  0  0  0  0  0  0  0  0  0  0  0
    0.7062    2.6807    0.0000 C   0  0  0  0  0  0  0  0  0  0  0  0
    2.1328    3.1443    0.0000 C   0  0  0  0  0  0  0  0  0  0  0  0
    2.5963    4.5709    0.0000 C   0  0  0  0  0  0  0  0  0  0  0  0
    4.0963    4.5709    0.0000 N   0  0  0  0  0  0  0  0  0  0  0  0
    4.5598    3.1443    0.0000 N   0  0  0  0  0  0  0  0  0  0  0  0
    5.9864    2.6807    0.0000 C   0  0  0  0  0  0  0  0  0  0  0  0
    6.2983    1.2135    0.0000 C   0  0  0  0  0  0  0  0  0  0  0  0
    7.7248    0.7500    0.0000 O   0  0  0  0  0  0  0  0  0  0  0  0
    3.3463    2.2626    0.0000 C   0  0  0  0  0  0  0  0  0  0  0  0
    0.3943    1.2135    0.0000 C   0  0  0  0  0  0  0  0  0  0  0  0
    1.2760    0.0000    0.0000 S   0  0  0  0  0  0  0  0  0  0  0  0
    0.3943   -1.2135    0.0000 C   0  0  0  0  0  0  0  0  0  0  0  0
   -1.0323   -0.7500    0.0000 C   0  0  0  0  0  0  0  0  0  0  0  0
   -2.2458   -1.6317    0.0000 C   0  0  0  0  0  0  0  0  0  0  0  0
   -3.6161   -1.0216    0.0000 C   0  0  0  0  0  0  0  0  0  0  0  0
   -4.8297   -1.9033    0.0000 C   0  0  0  0  0  0  0  0  0  0  0  0
   -4.6729   -3.3950    0.0000 C   0  0  0  0  0  0  0  0  0  0  0  0
   -5.8864   -4.2767    0.0000 N   0  0  0  0  0  0  0  0  0  0  0  0
   -7.2567   -3.6666    0.0000 C   0  0  0  0  0  0  0  0  0  0  0  0
   -7.4135   -2.1748    0.0000 O   0  0  0  0  0  0  0  0  0  0  0  0
   -8.4702   -4.5483    0.0000 N   0  0  0  0  0  0  0  0  0  0  0  0
   -9.8406   -3.9382    0.0000 C   0  0  0  0  0  0  0  0  0  0  0  0
   -9.9973   -2.4464    0.0000 C   0  0  0  0  0  0  0  0  0  0  0  0
  -11.3677   -1.8363    0.0000 C   0  0  0  0  0  0  0  0  0  0  0  0
  -12.5812   -2.7180    0.0000 C   0  0  0  0  0  0  0  0  0  0  0  0
  -12.4244   -4.2098    0.0000 C   0  0  0  0  0  0  0  0  0  0  0  0
  -13.6379   -5.0914    0.0000 F   0  0  0  0  0  0  0  0  0  0  0  0
  -11.0541   -4.8199    0.0000 C   0  0  0  0  0  0  0  0  0  0  0  0
   -3.3025   -4.0051    0.0000 C   0  0  0  0  0  0  0  0  0  0  0  0
   -2.0890   -3.1235    0.0000 C   0  0  0  0  0  0  0  0  0  0  0  0
   -1.0323    0.7500    0.0000 C   0  0  0  0  0  0  0  0  0  0  0  0
  1  2  1  0
  2  3  2  0
  3  4  1  0
  4  5  2  0
  5  6  1  0
  6  7  1  0
  7  8  2  0
  8  9  1  0
  9 10  1  0
 10 11  1  0
 11 12  1  0
  9 13  1  0
  5 14  1  0
 14 15  1  0
 15 16  1  0
 16 17  2  0
 17 18  1  0
 18 19  2  0
 19 20  1  0
 20 21  2  0
 21 22  1  0
 22 23  1  0
 23 24  2  0
 23 25  1  0
 25 26  1  0
 26 27  2  0
 27 28  1  0
 28 29  2  0
 29 30  1  0
 30 31  1  0
 30 32  2  0
 21 33  1  0
 33 34  2  0
 17 35  1  0
 35  2  1  0
 13  6  2  0
 35 14  2  0
 34 18  1  0
 32 26  1  0
M  END
>  <activity_comment>  (188) 
active

>  <activity_id>  (188) 
9630002

>  <activity_properties>  (188) 
[]

>  <assay_chembl_id>  (188) 
CHEMBL1963787

>  <assay_description>  (188) 
PUBCHEM_BIOASSAY: Navigating the Kinome. (Class of assay: other) Panel member name: CAMK2B

>  <assay_type>  (188) 
F

>  <bao_endpoint>  (188) 
BAO_0000192

>  <bao_format>  (188) 
BAO_0000019

>  <bao_label>  (188) 
assay format

>  <canonical_smiles>  (188) 
Nc1ncc(c2cnn(CCO)c2)c3scc(c4ccc(NC(=O)Nc5cccc(F)c5)cc4)c13

>  <data_validity_comment>  (188) 
nan

>  <data_validity_description>  (188) 
nan

>  <document_chembl_id>  (188) 
CHEMBL1201862

>  <document_journal>  (188) 
nan

>  <document_year>  (188) 
nan

>  <ligand_efficiency>  (188) 
nan

>  <molecule_pref_name>  (188) 
ILORASERTIB

>  <parent_molecule_chembl_id>  (188) 
CHEMBL1980297

>  <pchembl_value>  (188) 
5.2

>  <potential_duplicate>  (188) 
False

>  <qudt_units>  (188) 
http://www.openphacts.org/units/Nanomolar

>  <record_id>  (188) 
1584154

>  <relation>  (188) 
=

>  <src_id>  (188) 
7

>  <standard_flag>  (188) 
True

>  <standard_relation>  (188) 
=

>  <standard_text_value>  (188) 
nan

>  <standard_type>  (188) 
Ki

>  <standard_units>  (188) 
nM

>  <standard_upper_value>  (188) 
nan

>  <standard_value>  (188) 
6309.57

>  <target_chembl_id>  (188) 
CHEMBL4121

>  <target_organism>  (188) 
Homo sapiens

>  <target_pref_name>  (188) 
CaM kinase II beta

>  <target_tax_id>  (188) 
9606

>  <text_value>  (188) 
nan

>  <toid>  (188) 
nan

>  <type>  (188) 
pKi

>  <units>  (188) 
nan

>  <uo_units>  (188) 
UO_0000065

>  <upper_value>  (188) 
nan

>  <value>  (188) 
5.2

>  <SMILES>  (188) 
Nc1ncc(c2cnn(CCO)c2)c3scc(c4ccc(NC(=O)Nc5cccc(F)c5)cc4)c13

>  <NAME>  (188) 
CHEMBL1980297

>  <FILTER>  (188) 
OK

>  <MW>  (188) 
488.548

>  <LogP>  (188) 
5.1844

>  <HBD>  (188) 
4

>  <HBA>  (188) 
7

>  <TPSA>  (188) 
118.09

>  <Label>  (188) 
CAMK2B

$$$$
CHEMBL1985690
     RDKit          2D

 36 39  0  0  0  0  0  0  0  0999 V2000
  -14.3647   -8.3646    0.0000 C   0  0  0  0  0  0  0  0  0  0  0  0
  -14.0528   -6.8974    0.0000 C   0  0  0  0  0  0  0  0  0  0  0  0
  -12.6262   -6.4338    0.0000 C   0  0  0  0  0  0  0  0  0  0  0  0
  -12.3143   -4.9666    0.0000 C   0  0  0  0  0  0  0  0  0  0  0  0
  -10.8878   -4.5031    0.0000 O   0  0  0  0  0  0  0  0  0  0  0  0
  -10.5759   -3.0359    0.0000 C   0  0  0  0  0  0  0  0  0  0  0  0
  -11.6906   -2.0322    0.0000 C   0  0  0  0  0  0  0  0  0  0  0  0
  -11.3787   -0.5649    0.0000 C   0  0  0  0  0  0  0  0  0  0  0  0
   -9.9521   -0.1014    0.0000 C   0  0  0  0  0  0  0  0  0  0  0  0
   -8.8374   -1.1051    0.0000 C   0  0  0  0  0  0  0  0  0  0  0  0
   -9.1493   -2.5723    0.0000 C   0  0  0  0  0  0  0  0  0  0  0  0
   -8.0346   -3.5760    0.0000 S   0  0  0  0  0  0  0  0  0  0  0  0
   -7.0309   -2.4613    0.0000 O   0  0  0  0  0  0  0  0  0  0  0  0
   -9.0383   -4.6907    0.0000 O   0  0  0  0  0  0  0  0  0  0  0  0
   -6.9199   -4.5797    0.0000 N   0  0  0  0  0  0  0  0  0  0  0  0
   -5.4933   -4.1162    0.0000 C   0  0  0  0  0  0  0  0  0  0  0  0
   -4.3786   -5.1199    0.0000 C   0  0  0  0  0  0  0  0  0  0  0  0
   -2.9520   -4.6564    0.0000 C   0  0  0  0  0  0  0  0  0  0  0  0
   -2.6401   -3.1891    0.0000 C   0  0  0  0  0  0  0  0  0  0  0  0
   -3.7548   -2.1855    0.0000 C   0  0  0  0  0  0  0  0  0  0  0  0
   -5.1814   -2.6490    0.0000 C   0  0  0  0  0  0  0  0  0  0  0  0
   -1.2135   -2.7256    0.0000 C   0  0  0  0  0  0  0  0  0  0  0  0
    0.0000   -3.6073    0.0000 C   0  0  0  0  0  0  0  0  0  0  0  0
    1.2135   -2.7256    0.0000 S   0  0  0  0  0  0  0  0  0  0  0  0
    0.7500   -1.2990    0.0000 C   0  0  0  0  0  0  0  0  0  0  0  0
    1.5000    0.0000    0.0000 N   0  0  0  0  0  0  0  0  0  0  0  0
    0.7500    1.2990    0.0000 C   0  0  0  0  0  0  0  0  0  0  0  0
   -0.7500    1.2990    0.0000 N   0  0  0  0  0  0  0  0  0  0  0  0
   -1.5000    0.0000    0.0000 C   0  0  0  0  0  0  0  0  0  0  0  0
   -3.0000    0.0000    0.0000 N   0  0  0  0  0  0  0  0  0  0  0  0
   -0.7500   -1.2990    0.0000 C   0  0  0  0  0  0  0  0  0  0  0  0
   -9.6403    1.3658    0.0000 C   0  0  0  0  0  0  0  0  0  0  0  0
   -8.1731    1.0539    0.0000 C   0  0  0  0  0  0  0  0  0  0  0  0
  -11.1075    1.6777    0.0000 C   0  0  0  0  0  0  0  0  0  0  0  0
   -9.3284    2.8330    0.0000 C   0  0  0  0  0  0  0  0  0  0  0  0
  -10.4431    3.8367    0.0000 C   0  0  0  0  0  0  0  0  0  0  0  0
  1  2  1  0
  2  3  1  0
  3  4  1  0
  4  5  1  0
  5  6  1  0
  6  7  2  0
  7  8  1  0
  8  9  2  0
  9 10  1  0
 10 11  2  0
 11 12  1  0
 12 13  2  0
 12 14  2  0
 12 15  1  0
 15 16  1  0
 16 17  2  0
 17 18  1  0
 18 19  2  0
 19 20  1  0
 20 21  2  0
 19 22  1  0
 22 23  2  0
 23 24  1  0
 24 25  1  0
 25 26  2  0
 26 27  1  0
 27 28  2  0
 28 29  1  0
 29 30  1  0
 29 31  2  0
  9 32  1  0
 32 33  1  0
 32 34  1  0
 32 35  1  0
 35 36  1  0
 11  6  1  0
 21 16  1  0
 31 22  1  0
 31 25  1  0
M  END
>  <activity_comment>  (189) 
active

>  <activity_id>  (189) 
9630006

>  <activity_properties>  (189) 
[]

>  <assay_chembl_id>  (189) 
CHEMBL1963787

>  <assay_description>  (189) 
PUBCHEM_BIOASSAY: Navigating the Kinome. (Class of assay: other) Panel member name: CAMK2B

>  <assay_type>  (189) 
F

>  <bao_endpoint>  (189) 
BAO_0000192

>  <bao_format>  (189) 
BAO_0000019

>  <bao_label>  (189) 
assay format

>  <canonical_smiles>  (189) 
CCCCOc1ccc(cc1S(=O)(=O)Nc2ccc(cc2)c3csc4ncnc(N)c34)C(C)(C)CC

>  <data_validity_comment>  (189) 
nan

>  <data_validity_description>  (189) 
nan

>  <document_chembl_id>  (189) 
CHEMBL1201862

>  <document_journal>  (189) 
nan

>  <document_year>  (189) 
nan

>  <ligand_efficiency>  (189) 
nan

>  <molecule_pref_name>  (189) 
nan

>  <parent_molecule_chembl_id>  (189) 
CHEMBL1985690

>  <pchembl_value>  (189) 
5.4

>  <potential_duplicate>  (189) 
False

>  <qudt_units>  (189) 
http://www.openphacts.org/units/Nanomolar

>  <record_id>  (189) 
1585419

>  <relation>  (189) 
=

>  <src_id>  (189) 
7

>  <standard_flag>  (189) 
True

>  <standard_relation>  (189) 
=

>  <standard_text_value>  (189) 
nan

>  <standard_type>  (189) 
Ki

>  <standard_units>  (189) 
nM

>  <standard_upper_value>  (189) 
nan

>  <standard_value>  (189) 
3981.07

>  <target_chembl_id>  (189) 
CHEMBL4121

>  <target_organism>  (189) 
Homo sapiens

>  <target_pref_name>  (189) 
CaM kinase II beta

>  <target_tax_id>  (189) 
9606

>  <text_value>  (189) 
nan

>  <toid>  (189) 
nan

>  <type>  (189) 
pKi

>  <units>  (189) 
nan

>  <uo_units>  (189) 
UO_0000065

>  <upper_value>  (189) 
nan

>  <value>  (189) 
5.4

>  <SMILES>  (189) 
CCCCOc1ccc(cc1S(=O)(=O)Nc2ccc(cc2)c3csc4ncnc(N)c34)C(C)(C)CC

>  <NAME>  (189) 
CHEMBL1985690

>  <FILTER>  (189) 
OK

>  <MW>  (189) 
524.712

>  <LogP>  (189) 
6.6078

>  <HBD>  (189) 
2

>  <HBA>  (189) 
7

>  <TPSA>  (189) 
107.2

>  <Label>  (189) 
CAMK2B

$$$$
CHEMBL1993661
     RDKit          2D

 32 34  0  0  0  0  0  0  0  0999 V2000
   -3.7500    3.8971    0.0000 C   0  0  0  0  0  0  0  0  0  0  0  0
   -2.2500    3.8971    0.0000 N   0  0  0  0  0  0  0  0  0  0  0  0
   -1.5000    2.5981    0.0000 S   0  0  0  0  0  0  0  0  0  0  0  0
   -2.7990    1.8481    0.0000 O   0  0  0  0  0  0  0  0  0  0  0  0
   -0.2010    3.3481    0.0000 O   0  0  0  0  0  0  0  0  0  0  0  0
   -0.7500    1.2990    0.0000 C   0  0  0  0  0  0  0  0  0  0  0  0
   -1.5000   -0.0000    0.0000 C   0  0  0  0  0  0  0  0  0  0  0  0
   -0.7500   -1.2990    0.0000 C   0  0  0  0  0  0  0  0  0  0  0  0
    0.7500   -1.2990    0.0000 C   0  0  0  0  0  0  0  0  0  0  0  0
    1.5000   -0.0000    0.0000 C   0  0  0  0  0  0  0  0  0  0  0  0
    0.7500    1.2990    0.0000 C   0  0  0  0  0  0  0  0  0  0  0  0
    1.5000    2.5981    0.0000 N   0  0  0  0  0  0  0  0  0  0  0  0
    3.0000    2.5981    0.0000 C   0  0  0  0  0  0  0  0  0  0  0  0
    3.7500    1.2990    0.0000 N   0  0  0  0  0  0  0  0  0  0  0  0
    5.2500    1.2990    0.0000 C   0  0  0  0  0  0  0  0  0  0  0  0
    6.0000   -0.0000    0.0000 N   0  0  0  0  0  0  0  0  0  0  0  0
    7.5000   -0.0000    0.0000 C   0  0  0  0  0  0  0  0  0  0  0  0
    8.2500   -1.2990    0.0000 C   0  0  0  0  0  0  0  0  0  0  0  0
    9.7500   -1.2990    0.0000 C   0  0  0  0  0  0  0  0  0  0  0  0
   10.5000   -2.5981    0.0000 O   0  0  0  0  0  0  0  0  0  0  0  0
    9.7500   -3.8971    0.0000 C   0  0  0  0  0  0  0  0  0  0  0  0
   10.5000   -0.0000    0.0000 C   0  0  0  0  0  0  0  0  0  0  0  0
   12.0000    0.0000    0.0000 O   0  0  0  0  0  0  0  0  0  0  0  0
   12.7500    1.2990    0.0000 C   0  0  0  0  0  0  0  0  0  0  0  0
    9.7500    1.2990    0.0000 C   0  0  0  0  0  0  0  0  0  0  0  0
   10.5000    2.5981    0.0000 O   0  0  0  0  0  0  0  0  0  0  0  0
    9.7500    3.8971    0.0000 C   0  0  0  0  0  0  0  0  0  0  0  0
    8.2500    1.2990    0.0000 C   0  0  0  0  0  0  0  0  0  0  0  0
    6.0000    2.5981    0.0000 N   0  0  0  0  0  0  0  0  0  0  0  0
    5.2500    3.8971    0.0000 C   0  0  0  0  0  0  0  0  0  0  0  0
    3.7500    3.8971    0.0000 C   0  0  0  0  0  0  0  0  0  0  0  0
    3.0000    5.1962    0.0000 Cl  0  0  0  0  0  0  0  0  0  0  0  0
  1  2  1  0
  2  3  1  0
  3  4  2  0
  3  5  2  0
  3  6  1  0
  6  7  2  0
  7  8  1  0
  8  9  2  0
  9 10  1  0
 10 11  2  0
 11 12  1  0
 12 13  1  0
 13 14  2  0
 14 15  1  0
 15 16  1  0
 16 17  1  0
 17 18  2  0
 18 19  1  0
 19 20  1  0
 20 21  1  0
 19 22  2  0
 22 23  1  0
 23 24  1  0
 22 25  1  0
 25 26  1  0
 26 27  1  0
 25 28  2  0
 15 29  2  0
 29 30  1  0
 30 31  2  0
 31 32  1  0
 11  6  1  0
 31 13  1  0
 28 17  1  0
M  END
>  <activity_comment>  (190) 
active

>  <activity_id>  (190) 
9630009

>  <activity_properties>  (190) 
[]

>  <assay_chembl_id>  (190) 
CHEMBL1963787

>  <assay_description>  (190) 
PUBCHEM_BIOASSAY: Navigating the Kinome. (Class of assay: other) Panel member name: CAMK2B

>  <assay_type>  (190) 
F

>  <bao_endpoint>  (190) 
BAO_0000192

>  <bao_format>  (190) 
BAO_0000019

>  <bao_label>  (190) 
assay format

>  <canonical_smiles>  (190) 
CNS(=O)(=O)c1ccccc1Nc2nc(Nc3cc(OC)c(OC)c(OC)c3)ncc2Cl

>  <data_validity_comment>  (190) 
nan

>  <data_validity_description>  (190) 
nan

>  <document_chembl_id>  (190) 
CHEMBL1201862

>  <document_journal>  (190) 
nan

>  <document_year>  (190) 
nan

>  <ligand_efficiency>  (190) 
nan

>  <molecule_pref_name>  (190) 
nan

>  <parent_molecule_chembl_id>  (190) 
CHEMBL1993661

>  <pchembl_value>  (190) 
6.4

>  <potential_duplicate>  (190) 
False

>  <qudt_units>  (190) 
http://www.openphacts.org/units/Nanomolar

>  <record_id>  (190) 
1584473

>  <relation>  (190) 
=

>  <src_id>  (190) 
7

>  <standard_flag>  (190) 
True

>  <standard_relation>  (190) 
=

>  <standard_text_value>  (190) 
nan

>  <standard_type>  (190) 
Ki

>  <standard_units>  (190) 
nM

>  <standard_upper_value>  (190) 
nan

>  <standard_value>  (190) 
398.11

>  <target_chembl_id>  (190) 
CHEMBL4121

>  <target_organism>  (190) 
Homo sapiens

>  <target_pref_name>  (190) 
CaM kinase II beta

>  <target_tax_id>  (190) 
9606

>  <text_value>  (190) 
nan

>  <toid>  (190) 
nan

>  <type>  (190) 
pKi

>  <units>  (190) 
nan

>  <uo_units>  (190) 
UO_0000065

>  <upper_value>  (190) 
nan

>  <value>  (190) 
6.4

>  <SMILES>  (190) 
CNS(=O)(=O)c1ccccc1Nc2nc(Nc3cc(OC)c(OC)c(OC)c3)ncc2Cl

>  <NAME>  (190) 
CHEMBL1993661

>  <FILTER>  (190) 
OK

>  <MW>  (190) 
479.946

>  <LogP>  (190) 
3.5511

>  <HBD>  (190) 
3

>  <HBA>  (190) 
9

>  <TPSA>  (190) 
123.7

>  <Label>  (190) 
CAMK2B

$$$$
CHEMBL1974416
     RDKit          2D

 26 29  0  0  0  0  0  0  0  0999 V2000
    5.2500   -6.4952    0.0000 F   0  0  0  0  0  0  0  0  0  0  0  0
    3.7500   -6.4952    0.0000 C   0  0  0  0  0  0  0  0  0  0  0  0
    3.0000   -7.7942    0.0000 C   0  0  0  0  0  0  0  0  0  0  0  0
    1.5000   -7.7942    0.0000 C   0  0  0  0  0  0  0  0  0  0  0  0
    0.7500   -6.4952    0.0000 C   0  0  0  0  0  0  0  0  0  0  0  0
    1.5000   -5.1962    0.0000 C   0  0  0  0  0  0  0  0  0  0  0  0
    0.7500   -3.8971    0.0000 C   0  0  0  0  0  0  0  0  0  0  0  0
   -0.7500   -3.8971    0.0000 O   0  0  0  0  0  0  0  0  0  0  0  0
    1.5000   -2.5981    0.0000 N   0  0  0  0  0  0  0  0  0  0  0  0
    0.7500   -1.2990    0.0000 C   0  0  0  0  0  0  0  0  0  0  0  0
    1.5000    0.0000    0.0000 C   0  0  0  0  0  0  0  0  0  0  0  0
    0.7500    1.2990    0.0000 N   0  0  0  0  0  0  0  0  0  0  0  0
   -0.7500    1.2990    0.0000 C   0  0  0  0  0  0  0  0  0  0  0  0
   -1.7537    2.4138    0.0000 N   0  0  0  0  0  0  0  0  0  0  0  0
   -3.1240    1.8037    0.0000 C   0  0  0  0  0  0  0  0  0  0  0  0
   -2.9672    0.3119    0.0000 C   0  0  0  0  0  0  0  0  0  0  0  0
   -4.0819   -0.6918    0.0000 C   0  0  0  0  0  0  0  0  0  0  0  0
   -5.5085   -0.2283    0.0000 C   0  0  0  0  0  0  0  0  0  0  0  0
   -6.6232   -1.2320    0.0000 C   0  0  0  0  0  0  0  0  0  0  0  0
   -6.3114   -2.6992    0.0000 C   0  0  0  0  0  0  0  0  0  0  0  0
   -4.8848   -3.1627    0.0000 C   0  0  0  0  0  0  0  0  0  0  0  0
   -3.7701   -2.1590    0.0000 C   0  0  0  0  0  0  0  0  0  0  0  0
   -1.5000    0.0000    0.0000 C   0  0  0  0  0  0  0  0  0  0  0  0
   -0.7500   -1.2990    0.0000 C   0  0  0  0  0  0  0  0  0  0  0  0
    3.0000   -5.1962    0.0000 C   0  0  0  0  0  0  0  0  0  0  0  0
    3.7500   -3.8971    0.0000 F   0  0  0  0  0  0  0  0  0  0  0  0
  1  2  1  0
  2  3  2  0
  3  4  1  0
  4  5  2  0
  5  6  1  0
  6  7  1  0
  7  8  2  0
  7  9  1  0
  9 10  1  0
 10 11  2  0
 11 12  1  0
 12 13  2  0
 13 14  1  0
 14 15  1  0
 15 16  2  0
 16 17  1  0
 17 18  2  0
 18 19  1  0
 19 20  2  0
 20 21  1  0
 21 22  2  0
 16 23  1  0
 23 24  2  0
  6 25  2  0
 25 26  1  0
 25  2  1  0
 24 10  1  0
 23 13  1  0
 22 17  1  0
M  END
>  <activity_comment>  (191) 
active

>  <activity_id>  (191) 
9630010

>  <activity_properties>  (191) 
[]

>  <assay_chembl_id>  (191) 
CHEMBL1963787

>  <assay_description>  (191) 
PUBCHEM_BIOASSAY: Navigating the Kinome. (Class of assay: other) Panel member name: CAMK2B

>  <assay_type>  (191) 
F

>  <bao_endpoint>  (191) 
BAO_0000192

>  <bao_format>  (191) 
BAO_0000019

>  <bao_label>  (191) 
assay format

>  <canonical_smiles>  (191) 
Fc1cccc(C(=O)Nc2cnc3[nH]cc(c4ccccc4)c3c2)c1F

>  <data_validity_comment>  (191) 
nan

>  <data_validity_description>  (191) 
nan

>  <document_chembl_id>  (191) 
CHEMBL1201862

>  <document_journal>  (191) 
nan

>  <document_year>  (191) 
nan

>  <ligand_efficiency>  (191) 
nan

>  <molecule_pref_name>  (191) 
nan

>  <parent_molecule_chembl_id>  (191) 
CHEMBL1974416

>  <pchembl_value>  (191) 
5.9

>  <potential_duplicate>  (191) 
False

>  <qudt_units>  (191) 
http://www.openphacts.org/units/Nanomolar

>  <record_id>  (191) 
1584076

>  <relation>  (191) 
=

>  <src_id>  (191) 
7

>  <standard_flag>  (191) 
True

>  <standard_relation>  (191) 
=

>  <standard_text_value>  (191) 
nan

>  <standard_type>  (191) 
Ki

>  <standard_units>  (191) 
nM

>  <standard_upper_value>  (191) 
nan

>  <standard_value>  (191) 
1258.93

>  <target_chembl_id>  (191) 
CHEMBL4121

>  <target_organism>  (191) 
Homo sapiens

>  <target_pref_name>  (191) 
CaM kinase II beta

>  <target_tax_id>  (191) 
9606

>  <text_value>  (191) 
nan

>  <toid>  (191) 
nan

>  <type>  (191) 
pKi

>  <units>  (191) 
nan

>  <uo_units>  (191) 
UO_0000065

>  <upper_value>  (191) 
nan

>  <value>  (191) 
5.9

>  <SMILES>  (191) 
Fc1cccc(C(=O)Nc2cnc3[nH]cc(c4ccccc4)c3c2)c1F

>  <NAME>  (191) 
CHEMBL1974416

>  <FILTER>  (191) 
OK

>  <MW>  (191) 
349.34

>  <LogP>  (191) 
4.7604

>  <HBD>  (191) 
2

>  <HBA>  (191) 
2

>  <TPSA>  (191) 
57.78

>  <Label>  (191) 
CAMK2B

$$$$
CHEMBL2004615
     RDKit          2D

 17 18  0  0  0  0  0  0  0  0999 V2000
    4.8308   -6.3240    0.0000 C   0  0  0  0  0  0  0  0  0  0  0  0
    4.6740   -4.8322    0.0000 S   0  0  0  0  0  0  0  0  0  0  0  0
    3.3037   -4.2221    0.0000 C   0  0  0  0  0  0  0  0  0  0  0  0
    2.9918   -2.7549    0.0000 N   0  0  0  0  0  0  0  0  0  0  0  0
    1.5000   -2.5981    0.0000 N   0  0  0  0  0  0  0  0  0  0  0  0
    0.8899   -3.9684    0.0000 C   0  0  0  0  0  0  0  0  0  0  0  0
   -0.5773   -4.2803    0.0000 N   0  0  0  0  0  0  0  0  0  0  0  0
    2.0046   -4.9721    0.0000 C   0  0  0  0  0  0  0  0  0  0  0  0
    1.8478   -6.4639    0.0000 C   0  0  0  0  0  0  0  0  0  0  0  0
    3.0613   -7.3456    0.0000 O   0  0  0  0  0  0  0  0  0  0  0  0
    0.4775   -7.0740    0.0000 N   0  0  0  0  0  0  0  0  0  0  0  0
    0.7500   -1.2990    0.0000 C   0  0  0  0  0  0  0  0  0  0  0  0
    1.5000    0.0000    0.0000 C   0  0  0  0  0  0  0  0  0  0  0  0
    0.7500    1.2990    0.0000 C   0  0  0  0  0  0  0  0  0  0  0  0
   -0.7500    1.2990    0.0000 C   0  0  0  0  0  0  0  0  0  0  0  0
   -1.5000    0.0000    0.0000 C   0  0  0  0  0  0  0  0  0  0  0  0
   -0.7500   -1.2990    0.0000 N   0  0  0  0  0  0  0  0  0  0  0  0
  1  2  1  0
  2  3  1  0
  3  4  2  0
  4  5  1  0
  5  6  1  0
  6  7  1  0
  6  8  2  0
  8  9  1  0
  9 10  2  0
  9 11  1  0
  5 12  1  0
 12 13  2  0
 13 14  1  0
 14 15  2  0
 15 16  1  0
 16 17  2  0
  8  3  1  0
 17 12  1  0
M  END
>  <activity_comment>  (192) 
active

>  <activity_id>  (192) 
9630011

>  <activity_properties>  (192) 
[]

>  <assay_chembl_id>  (192) 
CHEMBL1963787

>  <assay_description>  (192) 
PUBCHEM_BIOASSAY: Navigating the Kinome. (Class of assay: other) Panel member name: CAMK2B

>  <assay_type>  (192) 
F

>  <bao_endpoint>  (192) 
BAO_0000192

>  <bao_format>  (192) 
BAO_0000019

>  <bao_label>  (192) 
assay format

>  <canonical_smiles>  (192) 
CSc1nn(c(N)c1C(=O)N)c2ccccn2

>  <data_validity_comment>  (192) 
nan

>  <data_validity_description>  (192) 
nan

>  <document_chembl_id>  (192) 
CHEMBL1201862

>  <document_journal>  (192) 
nan

>  <document_year>  (192) 
nan

>  <ligand_efficiency>  (192) 
nan

>  <molecule_pref_name>  (192) 
nan

>  <parent_molecule_chembl_id>  (192) 
CHEMBL2004615

>  <pchembl_value>  (192) 
5.3

>  <potential_duplicate>  (192) 
False

>  <qudt_units>  (192) 
http://www.openphacts.org/units/Nanomolar

>  <record_id>  (192) 
1585441

>  <relation>  (192) 
=

>  <src_id>  (192) 
7

>  <standard_flag>  (192) 
True

>  <standard_relation>  (192) 
=

>  <standard_text_value>  (192) 
nan

>  <standard_type>  (192) 
Ki

>  <standard_units>  (192) 
nM

>  <standard_upper_value>  (192) 
nan

>  <standard_value>  (192) 
5011.87

>  <target_chembl_id>  (192) 
CHEMBL4121

>  <target_organism>  (192) 
Homo sapiens

>  <target_pref_name>  (192) 
CaM kinase II beta

>  <target_tax_id>  (192) 
9606

>  <text_value>  (192) 
nan

>  <toid>  (192) 
nan

>  <type>  (192) 
pKi

>  <units>  (192) 
nan

>  <uo_units>  (192) 
UO_0000065

>  <upper_value>  (192) 
nan

>  <value>  (192) 
5.3

>  <SMILES>  (192) 
CSc1nn(c(N)c1C(=O)N)c2ccccn2

>  <NAME>  (192) 
CHEMBL2004615

>  <FILTER>  (192) 
OK

>  <MW>  (192) 
249.299

>  <LogP>  (192) 
0.6703

>  <HBD>  (192) 
2

>  <HBA>  (192) 
6

>  <TPSA>  (192) 
99.82

>  <Label>  (192) 
CAMK2B

$$$$
CHEMBL1984039
     RDKit          2D

 34 38  0  0  0  0  0  0  0  0999 V2000
  -11.9314   -3.8462    0.0000 C   0  0  0  0  0  0  0  0  0  0  0  0
  -12.8131   -5.0597    0.0000 C   0  0  0  0  0  0  0  0  0  0  0  0
  -14.3131   -5.0597    0.0000 N   0  0  0  0  0  0  0  0  0  0  0  0
  -14.7766   -6.4863    0.0000 N   0  0  0  0  0  0  0  0  0  0  0  0
  -16.2032   -6.9498    0.0000 C   0  0  0  0  0  0  0  0  0  0  0  0
  -13.5631   -7.3680    0.0000 C   0  0  0  0  0  0  0  0  0  0  0  0
  -13.5631   -8.8680    0.0000 C   0  0  0  0  0  0  0  0  0  0  0  0
  -12.3496   -6.4863    0.0000 C   0  0  0  0  0  0  0  0  0  0  0  0
  -10.9230   -6.9498    0.0000 C   0  0  0  0  0  0  0  0  0  0  0  0
  -10.6111   -8.4171    0.0000 C   0  0  0  0  0  0  0  0  0  0  0  0
   -9.1845   -8.8806    0.0000 C   0  0  0  0  0  0  0  0  0  0  0  0
   -8.0698   -7.8769    0.0000 C   0  0  0  0  0  0  0  0  0  0  0  0
   -8.3817   -6.4097    0.0000 C   0  0  0  0  0  0  0  0  0  0  0  0
   -7.5000   -5.1962    0.0000 C   0  0  0  0  0  0  0  0  0  0  0  0
   -6.0000   -5.1962    0.0000 C   0  0  0  0  0  0  0  0  0  0  0  0
   -5.2500   -3.8971    0.0000 C   0  0  0  0  0  0  0  0  0  0  0  0
   -3.7500   -3.8971    0.0000 C   0  0  0  0  0  0  0  0  0  0  0  0
   -3.0000   -2.5981    0.0000 O   0  0  0  0  0  0  0  0  0  0  0  0
   -1.5000   -2.5981    0.0000 C   0  0  0  0  0  0  0  0  0  0  0  0
   -0.7500   -3.8971    0.0000 C   0  0  0  0  0  0  0  0  0  0  0  0
    0.7500   -3.8971    0.0000 C   0  0  0  0  0  0  0  0  0  0  0  0
    1.5000   -2.5981    0.0000 C   0  0  0  0  0  0  0  0  0  0  0  0
    0.7500   -1.2990    0.0000 C   0  0  0  0  0  0  0  0  0  0  0  0
    1.5000    0.0000    0.0000 C   0  0  0  0  0  0  0  0  0  0  0  0
    0.7500    1.2990    0.0000 C   0  0  0  0  0  0  0  0  0  0  0  0
   -0.7500    1.2990    0.0000 C   0  0  0  0  0  0  0  0  0  0  0  0
   -1.5000    0.0000    0.0000 C   0  0  0  0  0  0  0  0  0  0  0  0
   -0.7500   -1.2990    0.0000 C   0  0  0  0  0  0  0  0  0  0  0  0
   -8.3817   -3.9826    0.0000 C   0  0  0  0  0  0  0  0  0  0  0  0
   -9.8083   -4.4462    0.0000 N   0  0  0  0  0  0  0  0  0  0  0  0
   -9.8083   -5.9462    0.0000 C   0  0  0  0  0  0  0  0  0  0  0  0
   -7.9182   -2.5560    0.0000 C   0  0  0  0  0  0  0  0  0  0  0  0
   -6.4509   -2.2442    0.0000 O   0  0  0  0  0  0  0  0  0  0  0  0
   -8.9218   -1.4413    0.0000 O   0  0  0  0  0  0  0  0  0  0  0  0
  1  2  1  0
  2  3  2  0
  3  4  1  0
  4  5  1  0
  4  6  1  0
  6  7  1  0
  6  8  2  0
  8  9  1  0
  9 10  2  0
 10 11  1  0
 11 12  2  0
 12 13  1  0
 13 14  1  0
 14 15  1  0
 15 16  1  0
 16 17  1  0
 17 18  1  0
 18 19  1  0
 19 20  2  0
 20 21  1  0
 21 22  2  0
 22 23  1  0
 23 24  2  0
 24 25  1  0
 25 26  2  0
 26 27  1  0
 27 28  2  0
 14 29  2  0
 29 30  1  0
 30 31  1  0
 29 32  1  0
 32 33  2  0
 32 34  1  0
  8  2  1  0
 31  9  1  0
 31 13  2  0
 28 19  1  0
 28 23  1  0
M  END
>  <activity_comment>  (193) 
active

>  <activity_id>  (193) 
9630012

>  <activity_properties>  (193) 
[]

>  <assay_chembl_id>  (193) 
CHEMBL1963787

>  <assay_description>  (193) 
PUBCHEM_BIOASSAY: Navigating the Kinome. (Class of assay: other) Panel member name: CAMK2B

>  <assay_type>  (193) 
F

>  <bao_endpoint>  (193) 
BAO_0000192

>  <bao_format>  (193) 
BAO_0000019

>  <bao_label>  (193) 
assay format

>  <canonical_smiles>  (193) 
Cc1nn(C)c(C)c1c2cccc3c(CCCOc4cccc5ccccc45)c([nH]c23)C(=O)O

>  <data_validity_comment>  (193) 
nan

>  <data_validity_description>  (193) 
nan

>  <document_chembl_id>  (193) 
CHEMBL1201862

>  <document_journal>  (193) 
nan

>  <document_year>  (193) 
nan

>  <ligand_efficiency>  (193) 
nan

>  <molecule_pref_name>  (193) 
nan

>  <parent_molecule_chembl_id>  (193) 
CHEMBL1984039

>  <pchembl_value>  (193) 
5.1

>  <potential_duplicate>  (193) 
False

>  <qudt_units>  (193) 
http://www.openphacts.org/units/Nanomolar

>  <record_id>  (193) 
1585053

>  <relation>  (193) 
=

>  <src_id>  (193) 
7

>  <standard_flag>  (193) 
True

>  <standard_relation>  (193) 
=

>  <standard_text_value>  (193) 
nan

>  <standard_type>  (193) 
Ki

>  <standard_units>  (193) 
nM

>  <standard_upper_value>  (193) 
nan

>  <standard_value>  (193) 
7943.28

>  <target_chembl_id>  (193) 
CHEMBL4121

>  <target_organism>  (193) 
Homo sapiens

>  <target_pref_name>  (193) 
CaM kinase II beta

>  <target_tax_id>  (193) 
9606

>  <text_value>  (193) 
nan

>  <toid>  (193) 
nan

>  <type>  (193) 
pKi

>  <units>  (193) 
nan

>  <uo_units>  (193) 
UO_0000065

>  <upper_value>  (193) 
nan

>  <value>  (193) 
5.1

>  <SMILES>  (193) 
Cc1nn(C)c(C)c1c2cccc3c(CCCOc4cccc5ccccc45)c([nH]c23)C(=O)O

>  <NAME>  (193) 
CHEMBL1984039

>  <FILTER>  (193) 
OK

>  <MW>  (193) 
453.542

>  <LogP>  (193) 
6.04824

>  <HBD>  (193) 
2

>  <HBA>  (193) 
4

>  <TPSA>  (193) 
80.14

>  <Label>  (193) 
CAMK2B

$$$$
